
     RDKit          3D

 79 83  0  0  0  0  0  0  0  0999 V2000
    3.9851   -1.4528   -1.0822 C   0  0  0  0  0  0  0  0  0  0  0  0
    2.7793   -0.7615   -1.1040 C   0  0  0  0  0  0  0  0  0  0  0  0
    2.4348   -0.0237    0.0181 C   0  0  0  0  0  0  0  0  0  0  0  0
    3.2921    0.0262    1.1324 C   0  0  0  0  0  0  0  0  0  0  0  0
    4.4769   -0.6764    1.1563 C   0  0  0  0  0  0  0  0  0  0  0  0
    4.8477   -1.4314    0.0358 C   0  0  0  0  0  0  0  0  0  0  0  0
    1.1871    0.7949    0.0612 C   0  0  0  0  0  0  0  0  0  0  0  0
    0.1442    0.2973   -0.6275 N   0  0  0  0  0  0  0  0  0  0  0  0
    1.1404    1.8410    0.6948 O   0  0  0  0  0  0  0  0  0  0  0  0
   -1.1000    0.9989   -0.8440 C   0  0  1  0  0  0  0  0  0  0  0  0
   -1.2703    1.3280   -2.3354 C   0  0  0  0  0  0  0  0  0  0  0  0
   -2.2594    0.1859   -0.2499 C   0  0  2  0  0  0  0  0  0  0  0  0
   -2.3048   -1.1279   -0.7722 O   0  0  0  0  0  0  0  0  0  0  0  0
   -0.0872    2.0770   -2.8802 C   0  0  0  0  0  0  0  0  0  0  0  0
   -3.5984    0.8976   -0.3779 C   0  0  0  0  0  0  0  0  0  0  0  0
   -4.6047    0.2539    0.4415 N   0  0  0  0  0  0  0  0  0  0  0  0
   -5.8980    0.9017    0.3442 C   0  0  0  0  0  0  0  0  0  0  0  0
    0.8654    1.4389   -3.6694 C   0  0  0  0  0  0  0  0  0  0  0  0
    1.9753    2.1262   -4.1443 C   0  0  0  0  0  0  0  0  0  0  0  0
    2.1486    3.4678   -3.8344 C   0  0  0  0  0  0  0  0  0  0  0  0
    1.2030    4.1159   -3.0492 C   0  0  0  0  0  0  0  0  0  0  0  0
    0.0966    3.4244   -2.5776 C   0  0  0  0  0  0  0  0  0  0  0  0
    4.5555   -2.2510   -2.0340 N   0  0  0  0  0  0  0  0  0  0  0  0
    7.2317   -0.2661    3.5805 C   0  0  0  0  0  0  0  0  0  0  0  0
    6.1098   -0.8256    4.4499 C   0  0  0  0  0  0  0  0  0  0  0  0
    5.0332   -1.2200    3.4634 C   0  0  0  0  0  0  0  0  0  0  0  0
    5.3281   -0.6313    2.2795 N   0  0  0  0  0  0  0  0  0  0  0  0
    6.5137    0.2128    2.3181 C   0  0  0  0  0  0  0  0  0  0  0  0
    5.7439   -2.7177   -1.5515 C   0  0  0  0  0  0  0  0  0  0  0  0
    5.9664   -2.2486   -0.2863 C   0  0  0  0  0  0  0  0  0  0  0  0
    4.0228   -2.4960   -3.3596 C   0  0  0  0  0  0  0  0  0  0  0  0
   -9.1449   -0.6472    1.5705 C   0  0  0  0  0  0  0  0  0  0  0  0
   -8.8357   -0.9424    2.8943 C   0  0  0  0  0  0  0  0  0  0  0  0
   -7.5638   -0.6426    3.3751 C   0  0  0  0  0  0  0  0  0  0  0  0
   -6.6072   -0.0594    2.5645 C   0  0  0  0  0  0  0  0  0  0  0  0
   -6.9164    0.2415    1.2358 C   0  0  0  0  0  0  0  0  0  0  0  0
   -8.1783   -0.0583    0.7499 C   0  0  0  0  0  0  0  0  0  0  0  0
  -11.3452   -1.5132    1.7647 C   0  0  0  0  0  0  0  0  0  0  0  0
    2.1491   -0.7758   -1.9844 H   0  0  0  0  0  0  0  0  0  0  0  0
    3.0140    0.6282    1.9878 H   0  0  0  0  0  0  0  0  0  0  0  0
    6.8180   -2.4713    0.3360 H   0  0  0  0  0  0  0  0  0  0  0  0
    0.2171   -0.6298   -1.0150 H   0  0  0  0  0  0  0  0  0  0  0  0
   -1.0437    1.9324   -0.2827 H   0  0  0  0  0  0  0  0  0  0  0  0
   -1.4126    0.4081   -2.9100 H   0  0  0  0  0  0  0  0  0  0  0  0
   -2.1756    1.9254   -2.4636 H   0  0  0  0  0  0  0  0  0  0  0  0
   -2.0492    0.0667    0.8173 H   0  0  0  0  0  0  0  0  0  0  0  0
   -2.6425   -1.0951   -1.6739 H   0  0  0  0  0  0  0  0  0  0  0  0
   -3.4803    1.9307   -0.0362 H   0  0  0  0  0  0  0  0  0  0  0  0
   -3.8951    0.9568   -1.4389 H   0  0  0  0  0  0  0  0  0  0  0  0
    0.7311    0.3939   -3.9255 H   0  0  0  0  0  0  0  0  0  0  0  0
   -0.6365    3.9417   -1.9691 H   0  0  0  0  0  0  0  0  0  0  0  0
   -4.7009   -0.7120    0.1504 H   0  0  0  0  0  0  0  0  0  0  0  0
   -5.7742    1.9443    0.6566 H   0  0  0  0  0  0  0  0  0  0  0  0
   -6.2838    0.9392   -0.6859 H   0  0  0  0  0  0  0  0  0  0  0  0
    2.7028    1.6141   -4.7617 H   0  0  0  0  0  0  0  0  0  0  0  0
    3.0107    4.0064   -4.2064 H   0  0  0  0  0  0  0  0  0  0  0  0
    1.3268    5.1634   -2.8056 H   0  0  0  0  0  0  0  0  0  0  0  0
    6.3536   -3.3714   -2.1559 H   0  0  0  0  0  0  0  0  0  0  0  0
    4.4757   -3.4145   -3.7306 H   0  0  0  0  0  0  0  0  0  0  0  0
    2.9526   -2.6904   -3.2721 H   0  0  0  0  0  0  0  0  0  0  0  0
    6.4064   -1.6729    5.0669 H   0  0  0  0  0  0  0  0  0  0  0  0
    5.6908   -0.0666    5.1172 H   0  0  0  0  0  0  0  0  0  0  0  0
    3.8396   -0.4181   -3.9732 H   0  0  0  0  0  0  0  0  0  0  0  0
    5.3520   -1.1864   -4.4592 H   0  0  0  0  0  0  0  0  0  0  0  0
    3.8491   -1.5812   -5.2965 H   0  0  0  0  0  0  0  0  0  0  0  0
   -9.5575   -1.4005    3.5572 H   0  0  0  0  0  0  0  0  0  0  0  0
   -8.4299    0.1621   -0.2817 H   0  0  0  0  0  0  0  0  0  0  0  0
   -7.3276   -0.8752    4.4058 H   0  0  0  0  0  0  0  0  0  0  0  0
   -5.6213    0.1600    2.9525 H   0  0  0  0  0  0  0  0  0  0  0  0
  -11.0413   -2.5018    2.1185 H   0  0  0  0  0  0  0  0  0  0  0  0
  -11.6323   -0.9055    2.6269 H   0  0  0  0  0  0  0  0  0  0  0  0
  -12.2096   -1.6251    1.1147 H   0  0  0  0  0  0  0  0  0  0  0  0
    7.7875    0.5364    4.0608 H   0  0  0  0  0  0  0  0  0  0  0  0
    7.9398   -1.0566    3.3289 H   0  0  0  0  0  0  0  0  0  0  0  0
    6.2254    1.2663    2.3820 H   0  0  0  0  0  0  0  0  0  0  0  0
    7.1149    0.0849    1.4177 H   0  0  0  0  0  0  0  0  0  0  0  0
    4.0605   -1.9194    3.6787 O   0  0  0  0  0  0  0  0  0  0  0  0
  -10.3368   -0.8953    0.9920 O   0  0  0  0  0  0  0  0  0  0  0  0
    4.2833   -1.3505   -4.3240 C   0  0  0  0  0  0  0  0  0  0  0  0
  1  2  2  0
  1  6  1  0
  1 23  1  0
  2  3  1  0
  3  4  2  0
  3  7  1  0
  4  5  1  0
  5  6  2  0
  5 27  1  0
  6 30  1  0
  7  8  1  0
  7  9  2  0
  8 10  1  0
 10 11  1  0
 10 12  1  0
 11 14  1  0
 12 13  1  0
 12 15  1  0
 14 18  2  0
 14 22  1  0
 15 16  1  0
 16 17  1  0
 17 36  1  0
 18 19  1  0
 19 20  2  0
 20 21  1  0
 21 22  2  0
 23 29  1  0
 23 31  1  0
 24 25  1  0
 24 28  1  0
 25 26  1  0
 26 27  1  0
 26 77  2  0
 27 28  1  0
 29 30  2  0
 79 31  1  0
 32 33  2  0
 32 37  1  0
 32 78  1  0
 33 34  1  0
 34 35  2  0
 35 36  1  0
 36 37  2  0
 78 38  1  0
  2 39  1  0
  4 40  1  0
 30 41  1  0
  8 42  1  0
 10 43  1  1
 11 44  1  0
 11 45  1  0
 12 46  1  1
 13 47  1  0
 15 48  1  0
 15 49  1  0
 18 50  1  0
 22 51  1  0
 16 52  1  0
 17 53  1  0
 17 54  1  0
 19 55  1  0
 20 56  1  0
 21 57  1  0
 29 58  1  0
 31 59  1  0
 31 60  1  0
 25 61  1  0
 25 62  1  0
 79 63  1  0
 79 64  1  0
 79 65  1  0
 33 66  1  0
 37 67  1  0
 34 68  1  0
 35 69  1  0
 38 70  1  0
 38 71  1  0
 38 72  1  0
 24 73  1  0
 24 74  1  0
 28 75  1  0
 28 76  1  0
M  END
