
     RDKit          3D

 60 63  0  0  0  0  0  0  0  0999 V2000
  -39.8766   31.9488  -22.7774 N   0  0  0  0  0  0  0  0  0  0  0  0
  -38.1925   28.2798  -18.9754 N   0  0  0  0  0  0  0  0  0  0  0  0
  -38.1660   34.6232  -21.1742 N   0  0  0  0  0  0  0  0  0  0  0  0
  -38.4597   30.6941  -20.3708 N   0  0  0  0  0  0  0  0  0  0  0  0
  -37.6902   25.9096  -19.4011 C   0  0  0  0  0  0  0  0  0  0  0  0
  -39.3142   26.5840  -17.5795 C   0  0  0  0  0  0  0  0  0  0  0  0
  -37.9064   28.9133  -21.9739 C   0  0  0  0  0  0  0  0  0  0  0  0
  -41.3199   32.0207  -22.5506 C   0  0  0  0  0  0  0  0  0  0  0  0
  -39.7953   33.3387  -25.1632 C   0  0  0  0  0  0  0  0  0  0  0  0
  -37.8701   31.7852  -24.2520 O   0  0  0  0  0  0  0  0  0  0  0  0
  -40.0383   30.7355  -24.9649 O   0  0  0  0  0  0  0  0  0  0  0  0
  -41.5785   37.3169  -20.4330 C   0  0  0  0  0  0  0  0  0  0  0  0
  -39.9515   38.1946  -18.8741 C   0  0  0  0  0  0  0  0  0  0  0  0
  -40.5584   36.6799  -21.1228 C   0  0  0  0  0  0  0  0  0  0  0  0
  -38.9452   37.5448  -19.5762 C   0  0  0  0  0  0  0  0  0  0  0  0
  -38.1456   36.0592  -21.4492 C   0  0  0  0  0  0  0  0  0  0  0  0
  -39.3034   28.5148  -19.8878 C   0  0  0  0  0  0  0  0  0  0  0  0
  -38.9126   33.9127  -22.0102 N   0  0  0  0  0  0  0  0  0  0  0  0
  -37.4854   29.3320  -18.5238 C   0  0  0  0  0  0  0  0  0  0  0  0
  -41.2528   38.0634  -19.3161 C   0  0  0  0  0  0  0  0  0  0  0  0
  -39.2339   36.7829  -20.7031 C   0  0  0  0  0  0  0  0  0  0  0  0
  -37.2093   31.8304  -18.8835 C   0  0  0  0  0  0  0  0  0  0  0  0
  -37.7080   30.5883  -19.2210 C   0  0  0  0  0  0  0  0  0  0  0  0
  -39.0591   32.6436  -21.8615 C   0  0  0  0  0  0  0  0  0  0  0  0
  -37.5276   34.1396  -20.0346 C   0  0  0  0  0  0  0  0  0  0  0  0
  -37.6883   32.7256  -19.8652 C   0  0  0  0  0  0  0  0  0  0  0  0
  -38.4456   31.9750  -20.7692 C   0  0  0  0  0  0  0  0  0  0  0  0
  -38.9420   29.4750  -21.0123 C   0  0  1  0  0  0  0  0  0  0  0  0
  -39.3201   31.8356  -24.3463 S   0  0  1  0  0  0  0  0  0  0  0  0
  -37.5284   24.9487  -18.9129 H   0  0  0  0  0  0  0  0  0  0  0  0
  -38.4771   25.7661  -20.1442 H   0  0  0  0  0  0  0  0  0  0  0  0
  -36.7733   26.1826  -19.9237 H   0  0  0  0  0  0  0  0  0  0  0  0
  -39.1720   25.6194  -17.0923 H   0  0  0  0  0  0  0  0  0  0  0  0
  -39.5310   27.3218  -16.8068 H   0  0  0  0  0  0  0  0  0  0  0  0
  -40.1896   26.4979  -18.2257 H   0  0  0  0  0  0  0  0  0  0  0  0
  -38.2914   28.0058  -22.4389 H   0  0  0  0  0  0  0  0  0  0  0  0
  -37.6871   29.6261  -22.7659 H   0  0  0  0  0  0  0  0  0  0  0  0
  -36.9746   28.6678  -21.4650 H   0  0  0  0  0  0  0  0  0  0  0  0
  -41.8308   31.2869  -23.1679 H   0  0  0  0  0  0  0  0  0  0  0  0
  -41.5157   31.7740  -21.5089 H   0  0  0  0  0  0  0  0  0  0  0  0
  -41.7232   33.0153  -22.7525 H   0  0  0  0  0  0  0  0  0  0  0  0
  -39.4637   33.2663  -26.1978 H   0  0  0  0  0  0  0  0  0  0  0  0
  -40.8778   33.4412  -25.1348 H   0  0  0  0  0  0  0  0  0  0  0  0
  -39.3213   34.1829  -24.6706 H   0  0  0  0  0  0  0  0  0  0  0  0
  -42.6063   37.2391  -20.7624 H   0  0  0  0  0  0  0  0  0  0  0  0
  -39.7249   38.7885  -17.9984 H   0  0  0  0  0  0  0  0  0  0  0  0
  -40.8044   36.0996  -22.0037 H   0  0  0  0  0  0  0  0  0  0  0  0
  -37.9219   37.6382  -19.2370 H   0  0  0  0  0  0  0  0  0  0  0  0
  -37.1656   36.4514  -21.1875 H   0  0  0  0  0  0  0  0  0  0  0  0
  -38.2690   36.1684  -22.5251 H   0  0  0  0  0  0  0  0  0  0  0  0
  -39.5994   27.5681  -20.3352 H   0  0  0  0  0  0  0  0  0  0  0  0
  -40.1711   28.8999  -19.3442 H   0  0  0  0  0  0  0  0  0  0  0  0
  -39.8577   29.7067  -21.5520 H   0  0  0  0  0  0  0  0  0  0  0  0
  -38.0588   26.9579  -18.3594 C   0  0  2  0  0  0  0  0  0  0  0  0
  -36.6742   29.2982  -17.5938 O   0  0  0  0  0  0  0  0  0  0  0  0
  -36.9063   34.8880  -19.2969 O   0  0  0  0  0  0  0  0  0  0  0  0
  -36.4387   32.1412  -17.8462 O   0  0  0  0  0  0  0  0  0  0  0  0
  -42.2351   38.6844  -18.6435 F   0  0  0  0  0  0  0  0  0  0  0  0
  -36.2263   31.3164  -17.3777 H   0  0  0  0  0  0  0  0  0  0  0  0
  -37.2324   27.0372  -17.6551 H   0  0  0  0  0  0  0  0  0  0  0  0
  1  8  1  0
  1 24  1  0
 29  1  1  1
  2 17  1  0
  2 19  1  0
  2 54  1  0
  3 16  1  0
  3 18  1  0
  3 25  1  0
  4 23  1  0
  4 27  1  0
  4 28  1  0
  5 54  1  0
  6 54  1  0
  7 28  1  0
  9 29  1  0
 55 19  2  0
 56 25  2  0
 10 29  2  0
 11 29  2  0
 57 22  1  0
 58 20  1  0
 12 14  2  0
 12 20  1  0
 13 15  1  0
 13 20  2  0
 14 21  1  0
 15 21  2  0
 16 21  1  0
 17 28  1  0
 18 24  2  0
 19 23  1  0
 22 23  2  0
 22 26  1  0
 24 27  1  0
 25 26  1  0
 26 27  2  0
  5 30  1  0
  5 31  1  0
  5 32  1  0
  6 33  1  0
  6 34  1  0
  6 35  1  0
  7 36  1  0
  7 37  1  0
  7 38  1  0
  8 39  1  0
  8 40  1  0
  8 41  1  0
  9 42  1  0
  9 43  1  0
  9 44  1  0
 57 59  1  0
 12 45  1  0
 13 46  1  0
 14 47  1  0
 15 48  1  0
 16 49  1  0
 16 50  1  0
 17 51  1  0
 17 52  1  0
 54 60  1  1
 28 53  1  6
M  END
