
     RDKit          3D

 24 26  0  0  0  0  0  0  0  0999 V2000
   -1.4964   -2.5927    0.0523 O   0  0  0  0  0  0  0  0  0  0  0  0
   -1.6765   -1.3868    0.0312 C   0  0  0  0  0  0  0  0  0  0  0  0
   -0.6733   -0.3524    0.0154 C   0  0  0  0  0  0  0  0  0  0  0  0
    0.7531   -0.4824    0.0096 C   0  0  0  0  0  0  0  0  0  0  0  0
    1.5338   -1.7632    0.0097 C   0  0  0  0  0  0  0  0  0  0  0  0
    2.9984   -1.5192   -0.3460 C   0  0  0  0  0  0  0  0  0  0  0  0
    3.5665   -0.3195    0.4023 C   0  0  0  0  0  0  0  0  0  0  0  0
    2.8416    0.9651    0.0065 C   0  0  0  0  0  0  0  0  0  0  0  0
    1.3658    0.7322    0.0052 C   0  0  0  0  0  0  0  0  0  0  0  0
    0.2358    2.0500   -0.0058 S   0  0  0  0  0  0  0  0  0  0  0  0
   -1.0986    0.9640    0.0033 C   0  0  0  0  0  0  0  0  0  0  0  0
   -2.3796    1.3995   -0.0017 N   0  0  0  0  0  0  0  0  0  0  0  0
   -3.2613    0.4575    0.0066 C   0  0  0  0  0  0  0  0  0  0  0  0
   -2.9633   -0.8589    0.0216 N   0  0  0  0  0  0  0  0  0  0  0  0
   -3.7309   -1.5186    0.0279 H   0  0  0  0  0  0  0  0  0  0  0  0
    1.4617   -2.2304    0.9971 H   0  0  0  0  0  0  0  0  0  0  0  0
    1.0891   -2.4737   -0.6879 H   0  0  0  0  0  0  0  0  0  0  0  0
    3.5803   -2.4151   -0.1225 H   0  0  0  0  0  0  0  0  0  0  0  0
    3.0898   -1.3479   -1.4231 H   0  0  0  0  0  0  0  0  0  0  0  0
    3.4641   -0.4774    1.4798 H   0  0  0  0  0  0  0  0  0  0  0  0
    4.6331   -0.2111    0.1986 H   0  0  0  0  0  0  0  0  0  0  0  0
    3.1028    1.7753    0.6913 H   0  0  0  0  0  0  0  0  0  0  0  0
    3.1663    1.2890   -0.9876 H   0  0  0  0  0  0  0  0  0  0  0  0
   -4.3157    0.7003    0.0026 H   0  0  0  0  0  0  0  0  0  0  0  0
  1  2  2  0
  2  3  1  0
  2 14  1  0
  3  4  1  0
  3 11  2  0
  4  5  1  0
  4  9  2  0
  5  6  1  0
  6  7  1  0
  7  8  1  0
  8  9  1  0
  9 10  1  0
 10 11  1  0
 11 12  1  0
 12 13  2  0
 13 14  1  0
 14 15  1  0
  5 16  1  0
  5 17  1  0
  6 18  1  0
  6 19  1  0
  7 20  1  0
  7 21  1  0
  8 22  1  0
  8 23  1  0
 13 24  1  0
M  END
