
     RDKit          3D

 47 49  0  0  0  0  0  0  0  0999 V2000
    2.4820   -0.2030   -0.7902 C   0  0  0  0  0  0  0  0  0  0  0  0
    1.5858   -0.7761   -1.7016 C   0  0  0  0  0  0  0  0  0  0  0  0
    1.5046   -2.1520   -1.7878 C   0  0  0  0  0  0  0  0  0  0  0  0
    2.3055   -2.9758   -0.9795 C   0  0  0  0  0  0  0  0  0  0  0  0
    3.1991   -2.4409   -0.0720 C   0  0  0  0  0  0  0  0  0  0  0  0
    3.2758   -1.0517    0.0140 C   0  0  0  0  0  0  0  0  0  0  0  0
    4.0548   -0.2551    0.8005 N   0  0  0  0  0  0  0  0  0  0  0  0
    3.7852    1.0554    0.5263 C   0  0  0  0  0  0  0  0  0  0  0  0
    2.8299    1.1446   -0.4454 C   0  0  0  0  0  0  0  0  0  0  0  0
    2.2117    2.3925   -0.9873 C   0  0  0  0  0  0  0  0  0  0  0  0
    0.8387    2.5750   -0.3602 C   0  0  0  0  0  0  0  0  0  0  0  0
    0.7118    2.9102    0.8071 O   0  0  0  0  0  0  0  0  0  0  0  0
   -0.1953    2.2780   -1.1689 N   0  0  0  0  0  0  0  0  0  0  0  0
   -1.5751    2.1875   -0.7503 C   0  0  0  0  0  0  0  0  0  0  0  0
   -2.0413    0.7348   -0.6377 C   0  0  1  0  0  0  0  0  0  0  0  0
   -1.2360    0.0315    0.3409 N   0  0  0  0  0  0  0  0  0  0  0  0
   -1.5657   -1.3778    0.4696 C   0  0  1  0  0  0  0  0  0  0  0  0
   -0.5746   -2.0575    1.4001 C   0  0  0  0  0  0  0  0  0  0  0  0
   -3.0079   -1.5206    0.9398 C   0  0  1  0  0  0  0  0  0  0  0  0
   -3.1355   -1.0273    2.2510 O   0  0  0  0  0  0  0  0  0  0  0  0
   -3.9292   -0.7770   -0.0260 C   0  0  1  0  0  0  0  0  0  0  0  0
   -5.2659   -0.7685    0.4422 O   0  0  0  0  0  0  0  0  0  0  0  0
   -3.5027    0.6738   -0.2036 C   0  0  2  0  0  0  0  0  0  0  0  0
   -4.2854    1.3171   -1.1829 O   0  0  0  0  0  0  0  0  0  0  0  0
    0.9710   -0.1536   -2.3399 H   0  0  0  0  0  0  0  0  0  0  0  0
    0.8160   -2.6058   -2.4889 H   0  0  0  0  0  0  0  0  0  0  0  0
    2.2194   -4.0510   -1.0694 H   0  0  0  0  0  0  0  0  0  0  0  0
    3.8166   -3.0776    0.5488 H   0  0  0  0  0  0  0  0  0  0  0  0
    4.7318   -0.5753    1.4723 H   0  0  0  0  0  0  0  0  0  0  0  0
    4.3006    1.8440    1.0517 H   0  0  0  0  0  0  0  0  0  0  0  0
    2.8250    3.2578   -0.7314 H   0  0  0  0  0  0  0  0  0  0  0  0
    2.1536    2.3502   -2.0781 H   0  0  0  0  0  0  0  0  0  0  0  0
   -0.0008    2.0731   -2.1353 H   0  0  0  0  0  0  0  0  0  0  0  0
   -1.6816    2.6877    0.2118 H   0  0  0  0  0  0  0  0  0  0  0  0
   -2.1951    2.7184   -1.4719 H   0  0  0  0  0  0  0  0  0  0  0  0
   -1.9705    0.2738   -1.6412 H   0  0  0  0  0  0  0  0  0  0  0  0
   -0.2601    0.1018    0.0790 H   0  0  0  0  0  0  0  0  0  0  0  0
   -1.5161   -1.8965   -0.5046 H   0  0  0  0  0  0  0  0  0  0  0  0
   -0.5628   -1.5851    2.3818 H   0  0  0  0  0  0  0  0  0  0  0  0
   -0.8284   -3.1107    1.5290 H   0  0  0  0  0  0  0  0  0  0  0  0
    0.4338   -2.0133    0.9836 H   0  0  0  0  0  0  0  0  0  0  0  0
   -3.2677   -2.5913    0.9000 H   0  0  0  0  0  0  0  0  0  0  0  0
   -4.0777   -0.9693    2.4443 H   0  0  0  0  0  0  0  0  0  0  0  0
   -3.8653   -1.2736   -1.0048 H   0  0  0  0  0  0  0  0  0  0  0  0
   -5.6684   -1.6194    0.2427 H   0  0  0  0  0  0  0  0  0  0  0  0
   -3.5865    1.1879    0.7659 H   0  0  0  0  0  0  0  0  0  0  0  0
   -5.2105    1.2063   -0.9398 H   0  0  0  0  0  0  0  0  0  0  0  0
  1  2  2  0
  1  6  1  0
  1  9  1  0
  2  3  1  0
  3  4  2  0
  4  5  1  0
  5  6  2  0
  6  7  1  0
  7  8  1  0
  8  9  2  0
  9 10  1  0
 10 11  1  0
 11 12  2  0
 11 13  1  0
 13 14  1  0
 14 15  1  0
 15 16  1  0
 15 23  1  0
 16 17  1  0
 17 18  1  0
 17 19  1  0
 19 20  1  0
 19 21  1  0
 21 22  1  0
 21 23  1  0
 23 24  1  0
  2 25  1  0
  3 26  1  0
  4 27  1  0
  5 28  1  0
  7 29  1  0
  8 30  1  0
 10 31  1  0
 10 32  1  0
 13 33  1  0
 14 34  1  0
 14 35  1  0
 15 36  1  6
 16 37  1  0
 17 38  1  6
 18 39  1  0
 18 40  1  0
 18 41  1  0
 19 42  1  1
 20 43  1  0
 21 44  1  6
 22 45  1  0
 23 46  1  1
 24 47  1  0
M  END
