
     RDKit          3D

 35 37  0  0  0  0  0  0  0  0999 V2000
   -1.2877   -0.5404    0.0127 C   0  0  0  0  0  0  0  0  0  0  0  0
    0.0179   -0.1176   -0.0019 N   0  0  0  0  0  0  0  0  0  0  0  0
    1.0927   -0.9546    0.0272 C   0  0  0  0  0  0  0  0  0  0  0  0
    3.5393   -1.1895   -0.0096 C   0  0  0  0  0  0  0  0  0  0  0  0
    5.0554    0.6798    0.0119 C   0  0  0  0  0  0  0  0  0  0  0  0
    7.7797    0.0309   -0.0160 C   0  0  0  0  0  0  0  0  0  0  0  0
   -5.9080    2.5004   -0.0472 C   0  0  0  0  0  0  0  0  0  0  0  0
   -7.0890    1.7754   -0.0286 C   0  0  0  0  0  0  0  0  0  0  0  0
   -7.0012    0.3898    0.0026 C   0  0  0  0  0  0  0  0  0  0  0  0
   -5.8531   -0.2690    0.0156 N   0  0  0  0  0  0  0  0  0  0  0  0
   -4.7178    0.4288   -0.0025 C   0  0  0  0  0  0  0  0  0  0  0  0
   -4.7000    1.8215   -0.0345 C   0  0  0  0  0  0  0  0  0  0  0  0
   -3.4717   -0.3464    0.0134 C   0  0  0  0  0  0  0  0  0  0  0  0
   -3.3925   -1.7034    0.0475 C   0  0  0  0  0  0  0  0  0  0  0  0
   -1.7510   -2.2085    0.0559 S   0  0  0  0  0  0  0  0  0  0  0  0
   -2.2666    0.3023   -0.0062 N   0  0  0  0  0  0  0  0  0  0  0  0
    2.4380   -0.3367    0.0204 C   0  0  0  0  0  0  0  0  0  0  0  0
    4.8314   -0.6958   -0.0151 C   0  0  0  0  0  0  0  0  0  0  0  0
    3.9552    1.5426    0.0440 C   0  0  0  0  0  0  0  0  0  0  0  0
    2.6701    1.0408    0.0482 C   0  0  0  0  0  0  0  0  0  0  0  0
    0.9255   -2.1630    0.0556 O   0  0  0  0  0  0  0  0  0  0  0  0
    0.1323    0.8843   -0.0338 H   0  0  0  0  0  0  0  0  0  0  0  0
    3.3913   -2.2605   -0.0301 H   0  0  0  0  0  0  0  0  0  0  0  0
    7.6732   -0.5633   -0.9213 H   0  0  0  0  0  0  0  0  0  0  0  0
    8.7760    0.4683   -0.0041 H   0  0  0  0  0  0  0  0  0  0  0  0
    7.6673   -0.5994    0.8637 H   0  0  0  0  0  0  0  0  0  0  0  0
   -5.9238    3.5819   -0.0712 H   0  0  0  0  0  0  0  0  0  0  0  0
   -8.0538    2.2630   -0.0380 H   0  0  0  0  0  0  0  0  0  0  0  0
   -7.9021   -0.2137    0.0180 H   0  0  0  0  0  0  0  0  0  0  0  0
   -3.7621    2.3582   -0.0492 H   0  0  0  0  0  0  0  0  0  0  0  0
   -4.2003   -2.4164    0.0677 H   0  0  0  0  0  0  0  0  0  0  0  0
    5.6528   -1.3967   -0.0402 H   0  0  0  0  0  0  0  0  0  0  0  0
    4.1029    2.6149    0.0674 H   0  0  0  0  0  0  0  0  0  0  0  0
    1.8628    1.7606    0.0779 H   0  0  0  0  0  0  0  0  0  0  0  0
    6.6388    1.4243    0.0097 S   0  0  0  0  0  0  0  0  0  0  0  0
 35  5  1  0
 35  6  1  0
  9 10  2  0
  9  8  1  0
 18  4  2  0
 18  5  1  0
 10 11  1  0
  4 17  1  0
  5 19  2  0
  8  7  2  0
 16  1  2  0
 16 13  1  0
 11 13  1  0
 11 12  2  0
  2  1  1  0
  2  3  1  0
 17  3  1  0
 17 20  2  0
 19 20  1  0
  7 12  1  0
  1 15  1  0
 13 14  2  0
  3 21  2  0
 14 15  1  0
  2 22  1  0
  4 23  1  0
  6 24  1  0
  6 25  1  0
  6 26  1  0
  7 27  1  0
  8 28  1  0
  9 29  1  0
 12 30  1  0
 14 31  1  0
 18 32  1  0
 19 33  1  0
 20 34  1  0
M  END
