
     RDKit          3D

 50 52  0  0  0  0  0  0  0  0999 V2000
    0.5035    4.7784    0.1746 C   0  0  0  0  0  0  0  0  0  0  0  0
    6.4490   -1.9779    0.5937 F   0  0  0  0  0  0  0  0  0  0  0  0
    0.5276    3.3641   -0.1139 N   0  0  0  0  0  0  0  0  0  0  0  0
    1.4491    2.5524    1.8261 O   0  0  0  0  0  0  0  0  0  0  0  0
    0.9956    2.3940    0.7170 C   0  0  0  0  0  0  0  0  0  0  0  0
    5.2006   -3.5467   -0.1980 F   0  0  0  0  0  0  0  0  0  0  0  0
    0.1863    1.4797   -1.3098 N   0  0  0  0  0  0  0  0  0  0  0  0
    5.5481   -1.7170   -1.4357 O   0  0  0  0  0  0  0  0  0  0  0  0
    0.7933    1.0811   -0.0575 C   0  0  1  0  0  0  0  0  0  0  0  0
   -8.4485    0.3592   -2.3625 F   0  0  0  0  0  0  0  0  0  0  0  0
   -0.3691    3.5322   -2.2860 N   0  0  0  0  0  0  0  0  0  0  0  0
    0.0784    2.7576   -1.2832 C   0  0  0  0  0  0  0  0  0  0  0  0
   -2.6004   -2.1193    3.0859 F   0  0  0  0  0  0  0  0  0  0  0  0
    2.1004    0.3577   -0.3506 C   0  0  0  0  0  0  0  0  0  0  0  0
    2.0196   -0.8708   -1.0053 C   0  0  0  0  0  0  0  0  0  0  0  0
    3.1588   -1.5748   -1.3506 C   0  0  0  0  0  0  0  0  0  0  0  0
    4.4036   -1.0426   -1.0450 C   0  0  0  0  0  0  0  0  0  0  0  0
    4.5091    0.1786   -0.4071 C   0  0  0  0  0  0  0  0  0  0  0  0
    3.3558    0.8761   -0.0636 C   0  0  0  0  0  0  0  0  0  0  0  0
    6.0924   -2.5936   -0.5589 C   0  0  1  0  0  0  0  0  0  0  0  0
   -0.1283    0.2015    0.7766 C   0  0  0  0  0  0  0  0  0  0  0  0
    0.3494   -0.3995    1.9408 C   0  0  0  0  0  0  0  0  0  0  0  0
   -0.4817   -1.1803    2.7263 C   0  0  0  0  0  0  0  0  0  0  0  0
   -1.7929   -1.3609    2.3363 C   0  0  0  0  0  0  0  0  0  0  0  0
   -2.3066   -0.7852    1.1809 C   0  0  0  0  0  0  0  0  0  0  0  0
   -1.4477    0.0034    0.4074 C   0  0  0  0  0  0  0  0  0  0  0  0
   -3.6595   -1.0021    0.7974 C   0  0  0  0  0  0  0  0  0  0  0  0
   -4.8009   -1.1815    0.4552 C   0  0  0  0  0  0  0  0  0  0  0  0
   -6.1730   -1.3846    0.0169 C   0  0  0  0  0  0  0  0  0  0  0  0
   -6.6256   -0.3247   -0.9917 C   0  0  0  0  0  0  0  0  0  0  0  0
   -8.0357   -0.6117   -1.4519 C   0  0  0  0  0  0  0  0  0  0  0  0
    1.1102    5.3307   -0.5417 H   0  0  0  0  0  0  0  0  0  0  0  0
   -0.5164    5.1617    0.1573 H   0  0  0  0  0  0  0  0  0  0  0  0
    0.9100    4.9372    1.1691 H   0  0  0  0  0  0  0  0  0  0  0  0
   -0.7314    4.4495   -2.0840 H   0  0  0  0  0  0  0  0  0  0  0  0
   -0.8327    3.0568   -3.0430 H   0  0  0  0  0  0  0  0  0  0  0  0
    1.0512   -1.2892   -1.2486 H   0  0  0  0  0  0  0  0  0  0  0  0
    3.0779   -2.5212   -1.8690 H   0  0  0  0  0  0  0  0  0  0  0  0
    5.4800    0.6026   -0.1885 H   0  0  0  0  0  0  0  0  0  0  0  0
    3.4717    1.8261    0.4390 H   0  0  0  0  0  0  0  0  0  0  0  0
    6.9635   -3.0555   -1.0170 H   0  0  0  0  0  0  0  0  0  0  0  0
    1.3800   -0.2697    2.2432 H   0  0  0  0  0  0  0  0  0  0  0  0
   -0.1144   -1.6479    3.6300 H   0  0  0  0  0  0  0  0  0  0  0  0
   -1.8270    0.4564   -0.4977 H   0  0  0  0  0  0  0  0  0  0  0  0
   -6.2605   -2.3824   -0.4238 H   0  0  0  0  0  0  0  0  0  0  0  0
   -6.8333   -1.3784    0.8890 H   0  0  0  0  0  0  0  0  0  0  0  0
   -6.5792    0.6633   -0.5295 H   0  0  0  0  0  0  0  0  0  0  0  0
   -5.9488   -0.3223   -1.8483 H   0  0  0  0  0  0  0  0  0  0  0  0
   -8.7326   -0.6040   -0.6117 H   0  0  0  0  0  0  0  0  0  0  0  0
   -8.0967   -1.5843   -1.9450 H   0  0  0  0  0  0  0  0  0  0  0  0
  1  3  1  0
  2 20  1  0
  3  5  1  0
  3 12  1  0
  4  5  2  0
  5  9  1  0
  6 20  1  0
  7  9  1  0
  7 12  2  0
  8 17  1  0
  8 20  1  0
  9 14  1  6
  9 21  1  0
 10 31  1  0
 11 12  1  0
 13 24  1  0
 14 15  2  0
 14 19  1  0
 15 16  1  0
 16 17  2  0
 17 18  1  0
 18 19  2  0
 21 22  2  0
 21 26  1  0
 22 23  1  0
 23 24  2  0
 24 25  1  0
 25 26  2  0
 25 27  1  0
 27 28  3  0
 28 29  1  0
 29 30  1  0
 30 31  1  0
  1 32  1  0
  1 33  1  0
  1 34  1  0
 11 35  1  0
 11 36  1  0
 15 37  1  0
 16 38  1  0
 18 39  1  0
 19 40  1  0
 20 41  1  6
 22 42  1  0
 23 43  1  0
 26 44  1  0
 29 45  1  0
 29 46  1  0
 30 47  1  0
 30 48  1  0
 31 49  1  0
 31 50  1  0
M  END
