
     RDKit          3D

 50 52  0  0  0  0  0  0  0  0999 V2000
    4.8091   -0.0273   -0.0404 C   0  0  0  0  0  0  0  0  0  0  0  0
    4.8914   -1.3378    0.4447 C   0  0  0  0  0  0  0  0  0  0  0  0
    5.9761   -1.6983    1.2203 C   0  0  0  0  0  0  0  0  0  0  0  0
    6.9877   -0.7718    1.5256 C   0  0  0  0  0  0  0  0  0  0  0  0
    6.9348    0.5283    1.0603 C   0  0  0  0  0  0  0  0  0  0  0  0
    5.8384    0.8875    0.2770 C   0  0  0  0  0  0  0  0  0  0  0  0
    5.5241    2.0732   -0.3174 N   0  0  0  0  0  0  0  0  0  0  0  0
    4.3426    1.9400   -0.9944 C   0  0  0  0  0  0  0  0  0  0  0  0
    3.8600    0.6693   -0.8582 C   0  0  0  0  0  0  0  0  0  0  0  0
    2.5797    0.1231   -1.3996 C   0  0  0  0  0  0  0  0  0  0  0  0
    1.5048    0.0402   -0.3185 C   0  0  0  0  0  0  0  0  0  0  0  0
    0.1896   -0.5312   -0.8097 C   0  0  0  0  0  0  0  0  0  0  0  0
   -0.1130   -0.5580   -1.9940 O   0  0  0  0  0  0  0  0  0  0  0  0
   -0.6170   -0.9774    0.1728 N   0  0  0  0  0  0  0  0  0  0  0  0
   -1.9468   -1.5104   -0.0160 C   0  0  0  0  0  0  0  0  0  0  0  0
   -3.0218   -0.5925    0.5631 C   0  0  1  0  0  0  0  0  0  0  0  0
   -2.9934    0.6857   -0.1203 N   0  0  0  0  0  0  0  0  0  0  0  0
   -3.9280    1.6579    0.4236 C   0  0  1  0  0  0  0  0  0  0  0  0
   -3.7268    3.0054   -0.2491 C   0  0  0  0  0  0  0  0  0  0  0  0
   -5.3519    1.1350    0.2725 C   0  0  1  0  0  0  0  0  0  0  0  0
   -5.7017    1.0769   -1.0886 O   0  0  0  0  0  0  0  0  0  0  0  0
   -5.4576   -0.2386    0.9337 C   0  0  1  0  0  0  0  0  0  0  0  0
   -6.7268   -0.8233    0.7087 O   0  0  0  0  0  0  0  0  0  0  0  0
   -4.4100   -1.2029    0.3908 C   0  0  2  0  0  0  0  0  0  0  0  0
   -4.4472   -2.4315    1.0793 O   0  0  0  0  0  0  0  0  0  0  0  0
    4.1187   -2.0618    0.2145 H   0  0  0  0  0  0  0  0  0  0  0  0
    6.0518   -2.7087    1.6015 H   0  0  0  0  0  0  0  0  0  0  0  0
    7.8260   -1.0829    2.1357 H   0  0  0  0  0  0  0  0  0  0  0  0
    7.7150    1.2411    1.2966 H   0  0  0  0  0  0  0  0  0  0  0  0
    6.0675    2.9181   -0.2656 H   0  0  0  0  0  0  0  0  0  0  0  0
    3.9239    2.7755   -1.5340 H   0  0  0  0  0  0  0  0  0  0  0  0
    2.2283    0.7509   -2.2198 H   0  0  0  0  0  0  0  0  0  0  0  0
    2.7507   -0.8703   -1.8238 H   0  0  0  0  0  0  0  0  0  0  0  0
    1.8660   -0.5421    0.5335 H   0  0  0  0  0  0  0  0  0  0  0  0
    1.3068    1.0444    0.0707 H   0  0  0  0  0  0  0  0  0  0  0  0
   -0.2694   -0.9439    1.1185 H   0  0  0  0  0  0  0  0  0  0  0  0
   -2.1177   -1.6432   -1.0840 H   0  0  0  0  0  0  0  0  0  0  0  0
   -2.0058   -2.4915    0.4553 H   0  0  0  0  0  0  0  0  0  0  0  0
   -2.8401   -0.4840    1.6495 H   0  0  0  0  0  0  0  0  0  0  0  0
   -2.0579    1.0679   -0.0575 H   0  0  0  0  0  0  0  0  0  0  0  0
   -3.7749    1.7966    1.5089 H   0  0  0  0  0  0  0  0  0  0  0  0
   -3.8711    2.9384   -1.3267 H   0  0  0  0  0  0  0  0  0  0  0  0
   -4.4260    3.7429    0.1465 H   0  0  0  0  0  0  0  0  0  0  0  0
   -2.7180    3.3791   -0.0645 H   0  0  0  0  0  0  0  0  0  0  0  0
   -6.0164    1.8258    0.8164 H   0  0  0  0  0  0  0  0  0  0  0  0
   -6.5240    0.5781   -1.1494 H   0  0  0  0  0  0  0  0  0  0  0  0
   -5.2733   -0.1097    2.0104 H   0  0  0  0  0  0  0  0  0  0  0  0
   -7.3630   -0.4258    1.3117 H   0  0  0  0  0  0  0  0  0  0  0  0
   -4.5846   -1.3495   -0.6861 H   0  0  0  0  0  0  0  0  0  0  0  0
   -5.3462   -2.7716    1.0246 H   0  0  0  0  0  0  0  0  0  0  0  0
  1  2  2  0
  1  6  1  0
  1  9  1  0
  2  3  1  0
  3  4  2  0
  4  5  1  0
  5  6  2  0
  6  7  1  0
  7  8  1  0
  8  9  2  0
  9 10  1  0
 10 11  1  0
 11 12  1  0
 12 13  2  0
 12 14  1  0
 14 15  1  0
 15 16  1  0
 16 17  1  0
 16 24  1  0
 17 18  1  0
 18 19  1  0
 18 20  1  0
 20 21  1  0
 20 22  1  0
 22 23  1  0
 22 24  1  0
 24 25  1  0
  2 26  1  0
  3 27  1  0
  4 28  1  0
  5 29  1  0
  7 30  1  0
  8 31  1  0
 10 32  1  0
 10 33  1  0
 11 34  1  0
 11 35  1  0
 14 36  1  0
 15 37  1  0
 15 38  1  0
 16 39  1  1
 17 40  1  0
 18 41  1  1
 19 42  1  0
 19 43  1  0
 19 44  1  0
 20 45  1  1
 21 46  1  0
 22 47  1  1
 23 48  1  0
 24 49  1  6
 25 50  1  0
M  END
