
     RDKit          3D

 51 54  0  0  0  0  0  0  0  0999 V2000
   -4.7680   -3.2682   -0.1370 C   0  0  0  0  0  0  0  0  0  0  0  0
   -5.3922   -1.9957   -0.2560 O   0  0  0  0  0  0  0  0  0  0  0  0
   -4.6725   -0.8956   -0.1359 C   0  0  0  0  0  0  0  0  0  0  0  0
   -3.3148   -0.9014    0.1075 C   0  0  0  0  0  0  0  0  0  0  0  0
   -5.4548    0.2972   -0.2855 C   0  0  0  0  0  0  0  0  0  0  0  0
   -4.8380    1.4935   -0.1943 C   0  0  0  0  0  0  0  0  0  0  0  0
   -5.4233    2.6735   -0.3098 O   0  0  0  0  0  0  0  0  0  0  0  0
   -6.8243    2.7211   -0.5455 C   0  0  0  0  0  0  0  0  0  0  0  0
   -3.3750    1.6065    0.0497 C   0  0  0  0  0  0  0  0  0  0  0  0
   -2.6159    0.3178    0.2248 C   0  0  0  0  0  0  0  0  0  0  0  0
   -1.3449    0.5013    0.4763 N   0  0  0  0  0  0  0  0  0  0  0  0
   -0.4158   -0.4745    0.6472 C   0  0  0  0  0  0  0  0  0  0  0  0
   -0.5894   -1.7589    0.5160 N   0  0  0  0  0  0  0  0  0  0  0  0
    0.4717   -2.5886    0.7020 C   0  0  0  0  0  0  0  0  0  0  0  0
    0.3028   -3.9777    0.5607 C   0  0  0  0  0  0  0  0  0  0  0  0
    1.3688   -4.8256    0.7425 C   0  0  0  0  0  0  0  0  0  0  0  0
    2.6358   -4.3138    1.0692 C   0  0  0  0  0  0  0  0  0  0  0  0
    2.8227   -2.9591    1.2120 C   0  0  0  0  0  0  0  0  0  0  0  0
    1.7446   -2.0781    1.0320 C   0  0  0  0  0  0  0  0  0  0  0  0
    1.9327   -0.7364    1.1777 N   0  0  0  0  0  0  0  0  0  0  0  0
    0.9103    0.0263    0.9973 C   0  0  0  0  0  0  0  0  0  0  0  0
    1.0214    1.3913    1.1221 N   0  0  0  0  0  0  0  0  0  0  0  0
    2.4442    2.2257    1.2876 S   0  0  1  0  0  0  0  0  0  0  0  0
    2.0416    3.6194    1.2201 O   0  0  0  0  0  0  0  0  0  0  0  0
    3.1589    1.7395    2.4492 O   0  0  0  0  0  0  0  0  0  0  0  0
    3.3712    1.8236   -0.1586 C   0  0  0  0  0  0  0  0  0  0  0  0
    3.0601    2.4710   -1.3488 C   0  0  0  0  0  0  0  0  0  0  0  0
    3.7683    2.1623   -2.4961 C   0  0  0  0  0  0  0  0  0  0  0  0
    4.7722    1.2126   -2.4188 C   0  0  0  0  0  0  0  0  0  0  0  0
    5.4583    0.9164   -3.5254 F   0  0  0  0  0  0  0  0  0  0  0  0
    5.0932    0.5623   -1.2421 C   0  0  0  0  0  0  0  0  0  0  0  0
    4.3796    0.8720   -0.0959 C   0  0  0  0  0  0  0  0  0  0  0  0
   -4.0052   -3.4094   -0.9041 H   0  0  0  0  0  0  0  0  0  0  0  0
   -4.3214   -3.4007    0.8495 H   0  0  0  0  0  0  0  0  0  0  0  0
   -5.5548   -4.0034   -0.2763 H   0  0  0  0  0  0  0  0  0  0  0  0
   -2.7686   -1.8229    0.2164 H   0  0  0  0  0  0  0  0  0  0  0  0
   -6.5154    0.1913   -0.4661 H   0  0  0  0  0  0  0  0  0  0  0  0
   -2.9240    2.1586   -0.7821 H   0  0  0  0  0  0  0  0  0  0  0  0
   -3.2099    2.2347    0.9304 H   0  0  0  0  0  0  0  0  0  0  0  0
   -7.3788    2.2589    0.2734 H   0  0  0  0  0  0  0  0  0  0  0  0
   -7.0884    3.7725   -0.6087 H   0  0  0  0  0  0  0  0  0  0  0  0
   -7.0852    2.2261   -1.4827 H   0  0  0  0  0  0  0  0  0  0  0  0
   -0.6783   -4.3583    0.3056 H   0  0  0  0  0  0  0  0  0  0  0  0
    1.2341   -5.8936    0.6334 H   0  0  0  0  0  0  0  0  0  0  0  0
    3.4673   -4.9916    1.2098 H   0  0  0  0  0  0  0  0  0  0  0  0
    3.7929   -2.5512    1.4659 H   0  0  0  0  0  0  0  0  0  0  0  0
    0.1893    1.9178    0.8647 H   0  0  0  0  0  0  0  0  0  0  0  0
    2.2759    3.2143   -1.3943 H   0  0  0  0  0  0  0  0  0  0  0  0
    4.6130    0.3705    0.8316 H   0  0  0  0  0  0  0  0  0  0  0  0
    3.5478    2.6554   -3.4331 H   0  0  0  0  0  0  0  0  0  0  0  0
    5.8846   -0.1742   -1.2178 H   0  0  0  0  0  0  0  0  0  0  0  0
  1  2  1  0
  2  3  1  0
  3  4  2  0
  3  5  1  0
  4 10  1  0
  5  6  2  0
  6  7  1  0
  6  9  1  0
  7  8  1  0
  9 10  1  0
 10 11  2  0
 11 12  1  0
 12 13  2  0
 12 21  1  0
 13 14  1  0
 14 15  2  0
 14 19  1  0
 15 16  1  0
 16 17  2  0
 17 18  1  0
 18 19  2  0
 19 20  1  0
 20 21  2  0
 21 22  1  0
 23 22  1  6
 23 24  2  0
 23 25  2  0
 23 26  1  0
 26 27  2  0
 26 32  1  0
 27 28  1  0
 28 29  2  0
 29 30  1  0
 29 31  1  0
 31 32  2  0
  1 33  1  0
  1 34  1  0
  1 35  1  0
  4 36  1  0
  5 37  1  0
  9 38  1  0
  9 39  1  0
  8 40  1  0
  8 41  1  0
  8 42  1  0
 15 43  1  0
 16 44  1  0
 17 45  1  0
 18 46  1  0
 22 47  1  0
 27 48  1  0
 32 49  1  0
 28 50  1  0
 31 51  1  0
M  END
