
     RDKit          3D

 60 63  0  0  0  0  0  0  0  0999 V2000
    6.8469    2.1651    0.6009 O   0  0  0  0  0  0  0  0  0  0  0  0
    7.0664    1.1502   -0.0384 C   0  0  0  0  0  0  0  0  0  0  0  0
    8.2776    0.8049   -0.4870 N   0  0  0  0  0  0  0  0  0  0  0  0
    9.4417    1.6364   -0.2861 C   0  0  0  0  0  0  0  0  0  0  0  0
    5.9581    0.1885   -0.4379 C   0  0  0  0  0  0  0  0  0  0  0  0
    4.9013    0.3707    0.4664 O   0  0  0  0  0  0  0  0  0  0  0  0
    3.7288   -0.2479    0.2253 C   0  0  0  0  0  0  0  0  0  0  0  0
    3.5002   -1.1368   -0.8171 C   0  0  0  0  0  0  0  0  0  0  0  0
    2.2357   -1.6955   -0.9596 C   0  0  0  0  0  0  0  0  0  0  0  0
    2.6862    0.0633    1.0988 C   0  0  0  0  0  0  0  0  0  0  0  0
    1.4310   -0.5020    0.9614 C   0  0  0  0  0  0  0  0  0  0  0  0
    1.1935   -1.4062   -0.0878 C   0  0  0  0  0  0  0  0  0  0  0  0
   -0.1223   -2.0471   -0.3079 C   0  0  0  0  0  0  0  0  0  0  0  0
   -0.7729   -1.8940   -1.5320 C   0  0  0  0  0  0  0  0  0  0  0  0
   -1.9990   -2.4872   -1.7666 C   0  0  0  0  0  0  0  0  0  0  0  0
   -2.5899   -3.2608   -0.7685 C   0  0  0  0  0  0  0  0  0  0  0  0
   -3.8597   -3.8668   -0.9972 C   0  0  0  0  0  0  0  0  0  0  0  0
   -4.8881   -4.3543   -1.1818 N   0  0  0  0  0  0  0  0  0  0  0  0
   -1.9367   -3.4494    0.4509 C   0  0  0  0  0  0  0  0  0  0  0  0
   -0.7114   -2.8512    0.6684 C   0  0  0  0  0  0  0  0  0  0  0  0
    0.3393   -0.0917    1.9206 C   0  0  0  0  0  0  0  0  0  0  0  0
   -0.8729    0.2556    1.2232 N   0  0  0  0  0  0  0  0  0  0  0  0
   -2.0571    0.2275    2.0455 C   0  0  0  0  0  0  0  0  0  0  0  0
   -3.2944    0.3794    1.1840 C   0  0  0  0  0  0  0  0  0  0  0  0
   -3.2209    1.5914    0.3853 N   0  0  0  0  0  0  0  0  0  0  0  0
   -1.9992    1.7003   -0.3861 C   0  0  0  0  0  0  0  0  0  0  0  0
   -0.7814    1.4982    0.4973 C   0  0  0  0  0  0  0  0  0  0  0  0
   -4.3730    2.2178   -0.0149 C   0  0  0  0  0  0  0  0  0  0  0  0
   -5.4863    1.9256    0.6608 N   0  0  0  0  0  0  0  0  0  0  0  0
   -6.6196    2.5412    0.3508 C   0  0  0  0  0  0  0  0  0  0  0  0
   -6.7414    3.4842   -0.6518 C   0  0  0  0  0  0  0  0  0  0  0  0
   -5.5900    3.7796   -1.3754 C   0  0  0  0  0  0  0  0  0  0  0  0
   -4.4008    3.1511   -1.0735 C   0  0  0  0  0  0  0  0  0  0  0  0
    8.3940   -0.0653   -0.9793 H   0  0  0  0  0  0  0  0  0  0  0  0
    5.6520    0.4252   -1.4650 H   0  0  0  0  0  0  0  0  0  0  0  0
    6.3197   -0.8462   -0.4347 H   0  0  0  0  0  0  0  0  0  0  0  0
    9.2922    2.6375   -0.6906 H   0  0  0  0  0  0  0  0  0  0  0  0
    9.6953    1.7274    0.7706 H   0  0  0  0  0  0  0  0  0  0  0  0
   10.2815    1.1808   -0.8019 H   0  0  0  0  0  0  0  0  0  0  0  0
    4.2747   -1.4092   -1.5210 H   0  0  0  0  0  0  0  0  0  0  0  0
    2.8644    0.7826    1.8901 H   0  0  0  0  0  0  0  0  0  0  0  0
    2.0694   -2.3935   -1.7710 H   0  0  0  0  0  0  0  0  0  0  0  0
    0.1204   -0.9185    2.6021 H   0  0  0  0  0  0  0  0  0  0  0  0
    0.7141    0.7265    2.5565 H   0  0  0  0  0  0  0  0  0  0  0  0
   -0.3251   -1.2803   -2.3030 H   0  0  0  0  0  0  0  0  0  0  0  0
   -0.2080   -3.0176    1.6118 H   0  0  0  0  0  0  0  0  0  0  0  0
   -2.4984   -2.3492   -2.7159 H   0  0  0  0  0  0  0  0  0  0  0  0
   -2.3861   -4.0656    1.2179 H   0  0  0  0  0  0  0  0  0  0  0  0
   -2.1126   -0.7341    2.5613 H   0  0  0  0  0  0  0  0  0  0  0  0
   -2.0481    1.0141    2.8206 H   0  0  0  0  0  0  0  0  0  0  0  0
   -0.6779    2.3623    1.1776 H   0  0  0  0  0  0  0  0  0  0  0  0
    0.1033    1.4829   -0.1428 H   0  0  0  0  0  0  0  0  0  0  0  0
   -3.3829   -0.5001    0.5305 H   0  0  0  0  0  0  0  0  0  0  0  0
   -4.1772    0.4164    1.8148 H   0  0  0  0  0  0  0  0  0  0  0  0
   -1.9871    0.9649   -1.2021 H   0  0  0  0  0  0  0  0  0  0  0  0
   -1.9185    2.6890   -0.8319 H   0  0  0  0  0  0  0  0  0  0  0  0
   -3.5218    3.3818   -1.6560 H   0  0  0  0  0  0  0  0  0  0  0  0
   -7.4849    2.2604    0.9429 H   0  0  0  0  0  0  0  0  0  0  0  0
   -7.6897    3.9579   -0.8618 H   0  0  0  0  0  0  0  0  0  0  0  0
   -5.6179    4.4979   -2.1848 H   0  0  0  0  0  0  0  0  0  0  0  0
  1  2  2  0
  2  3  1  0
  2  5  1  0
  3  4  1  0
  5  6  1  0
  6  7  1  0
  7  8  2  0
  7 10  1  0
  8  9  1  0
  9 12  2  0
 10 11  2  0
 11 12  1  0
 11 21  1  0
 12 13  1  0
 13 14  2  0
 13 20  1  0
 14 15  1  0
 15 16  2  0
 16 17  1  0
 16 19  1  0
 17 18  3  0
 19 20  2  0
 21 22  1  0
 22 23  1  0
 22 27  1  0
 23 24  1  0
 24 25  1  0
 25 26  1  0
 25 28  1  0
 26 27  1  0
 28 29  2  0
 28 33  1  0
 29 30  1  0
 30 31  2  0
 31 32  1  0
 32 33  2  0
  3 34  1  0
  5 35  1  0
  5 36  1  0
  4 37  1  0
  4 38  1  0
  4 39  1  0
  8 40  1  0
 10 41  1  0
  9 42  1  0
 21 43  1  0
 21 44  1  0
 14 45  1  0
 20 46  1  0
 15 47  1  0
 19 48  1  0
 23 49  1  0
 23 50  1  0
 27 51  1  0
 27 52  1  0
 24 53  1  0
 24 54  1  0
 26 55  1  0
 26 56  1  0
 33 57  1  0
 30 58  1  0
 31 59  1  0
 32 60  1  0
M  END
