
     RDKit          3D

 18 18  0  0  0  0  0  0  0  0999 V2000
   -3.7913   -0.2548   -0.0110 F   0  0  0  0  0  0  0  0  0  0  0  0
   -2.4563   -0.1261   -0.0153 C   0  0  0  0  0  0  0  0  0  0  0  0
   -1.9036    1.1159   -0.2557 C   0  0  0  0  0  0  0  0  0  0  0  0
   -1.6762   -1.2420    0.2253 C   0  0  0  0  0  0  0  0  0  0  0  0
   -0.2988   -1.1021    0.2251 C   0  0  0  0  0  0  0  0  0  0  0  0
    0.2961    0.1366   -0.0137 C   0  0  0  0  0  0  0  0  0  0  0  0
   -0.5219    1.2396   -0.2533 C   0  0  0  0  0  0  0  0  0  0  0  0
    1.7677    0.2708   -0.0223 C   0  0  0  0  0  0  0  0  0  0  0  0
    2.2899    1.4865    0.3081 N   0  0  0  0  0  0  0  0  0  0  0  0
    2.4388   -0.7552   -0.3964 N   0  0  0  0  0  0  0  0  0  0  0  0
    3.8014   -0.5162   -0.3322 O   0  0  0  0  0  0  0  0  0  0  0  0
   -2.5358    1.9725   -0.4488 H   0  0  0  0  0  0  0  0  0  0  0  0
   -2.1351   -2.2024    0.4200 H   0  0  0  0  0  0  0  0  0  0  0  0
   -0.0893    2.2099   -0.4594 H   0  0  0  0  0  0  0  0  0  0  0  0
    0.3209   -1.9658    0.4231 H   0  0  0  0  0  0  0  0  0  0  0  0
    1.7616    2.0492    0.9542 H   0  0  0  0  0  0  0  0  0  0  0  0
    3.2847    1.5356    0.4558 H   0  0  0  0  0  0  0  0  0  0  0  0
    4.1934   -1.3383   -0.6400 H   0  0  0  0  0  0  0  0  0  0  0  0
  1  2  1  0
  2  3  2  0
  2  4  1  0
  3  7  1  0
  4  5  2  0
  5  6  1  0
  6  7  2  0
  6  8  1  0
  8  9  1  0
  8 10  2  0
 10 11  1  0
  3 12  1  0
  4 13  1  0
  7 14  1  0
  5 15  1  0
  9 16  1  0
  9 17  1  0
 11 18  1  0
M  END
