
     RDKit          3D

 27 29  0  0  0  0  0  0  0  0999 V2000
   -1.7549    0.1682   -2.8914 C   0  0  0  0  0  0  0  0  0  0  0  0
   -1.2325    0.0675   -4.1633 C   0  0  0  0  0  0  0  0  0  0  0  0
    0.1462   -0.1145   -4.3607 C   0  0  0  0  0  0  0  0  0  0  0  0
    0.6809   -0.2184   -5.5936 O   0  0  0  0  0  0  0  0  0  0  0  0
    1.0085   -0.1931   -3.2768 C   0  0  0  0  0  0  0  0  0  0  0  0
    0.4652   -0.0898   -2.0025 C   0  0  0  0  0  0  0  0  0  0  0  0
    1.3298   -0.1640   -0.5030 S   0  0  0  0  0  0  0  0  0  0  0  0
   -0.1416    0.0582    0.4214 C   0  0  0  0  0  0  0  0  0  0  0  0
   -0.0869    0.0857    1.8804 C   0  0  0  0  0  0  0  0  0  0  0  0
    1.0587    0.4981    2.5663 C   0  0  0  0  0  0  0  0  0  0  0  0
    1.1023    0.5260    3.9484 C   0  0  0  0  0  0  0  0  0  0  0  0
   -0.0131    0.1422    4.6897 C   0  0  0  0  0  0  0  0  0  0  0  0
    0.0749    0.1839    6.0314 O   0  0  0  0  0  0  0  0  0  0  0  0
   -1.1646   -0.2707    4.0220 C   0  0  0  0  0  0  0  0  0  0  0  0
   -1.1934   -0.3014    2.6392 C   0  0  0  0  0  0  0  0  0  0  0  0
   -0.9111    0.0886   -1.7794 C   0  0  0  0  0  0  0  0  0  0  0  0
   -1.2262    0.1720   -0.3858 C   0  0  0  0  0  0  0  0  0  0  0  0
   -2.8204    0.3056   -2.7570 H   0  0  0  0  0  0  0  0  0  0  0  0
   -1.8932    0.1287   -5.0203 H   0  0  0  0  0  0  0  0  0  0  0  0
   -0.0049   -0.1432   -6.2663 H   0  0  0  0  0  0  0  0  0  0  0  0
    2.0717   -0.3300   -3.4300 H   0  0  0  0  0  0  0  0  0  0  0  0
    1.9360    0.8220    2.0189 H   0  0  0  0  0  0  0  0  0  0  0  0
    2.0012    0.8529    4.4555 H   0  0  0  0  0  0  0  0  0  0  0  0
   -0.7484   -0.1162    6.4330 H   0  0  0  0  0  0  0  0  0  0  0  0
   -2.0387   -0.5843    4.5812 H   0  0  0  0  0  0  0  0  0  0  0  0
   -2.0912   -0.6524    2.1470 H   0  0  0  0  0  0  0  0  0  0  0  0
   -2.2298    0.3343   -0.0162 H   0  0  0  0  0  0  0  0  0  0  0  0
  1  2  2  0
  1 16  1  0
  1 18  1  0
  2  3  1  0
  2 19  1  0
  3  4  1  0
  3  5  2  0
  4 20  1  0
  5  6  1  0
  5 21  1  0
  6  7  1  0
  6 16  2  0
  7  8  1  0
  8  9  1  0
  8 17  2  0
  9 10  2  0
  9 15  1  0
 10 11  1  0
 10 22  1  0
 11 12  2  0
 11 23  1  0
 12 13  1  0
 12 14  1  0
 13 24  1  0
 14 15  2  0
 14 25  1  0
 15 26  1  0
 16 17  1  0
 17 27  1  0
M  END
