
     RDKit          3D

 25 24  0  0  0  0  0  0  0  0999 V2000
    5.9948   -0.3212    0.3480 N   0  0  0  0  0  0  0  0  0  0  0  0
    4.8097    0.5059    0.1713 C   0  0  0  0  0  0  0  0  0  0  0  0
    3.5599   -0.3538    0.0609 C   0  0  0  0  0  0  0  0  0  0  0  0
    2.2968    0.4775   -0.1160 C   0  0  0  0  0  0  0  0  0  0  0  0
    1.0580   -0.3951   -0.2362 C   0  0  0  0  0  0  0  0  0  0  0  0
   -0.1283    0.4152   -0.4304 N   0  0  0  0  0  0  0  0  0  0  0  0
   -1.3644   -0.0072   -0.1503 C   0  0  0  0  0  0  0  0  0  0  0  0
   -1.6324   -1.1170    0.2815 O   0  0  0  0  0  0  0  0  0  0  0  0
   -2.4548    1.0399   -0.3504 C   0  0  0  0  0  0  0  0  0  0  0  0
   -3.7401    0.4313   -0.6411 N   0  0  0  0  0  0  0  0  0  0  0  0
   -4.2690   -0.1922    0.2635 N   0  0  0  0  0  0  0  0  0  0  0  0
   -4.8641   -0.7749    1.0168 N   0  0  0  0  0  0  0  0  0  0  0  0
    6.8179    0.2672    0.3636 H   0  0  0  0  0  0  0  0  0  0  0  0
    5.9593   -0.7605    1.2600 H   0  0  0  0  0  0  0  0  0  0  0  0
    4.6641    1.2420    0.9755 H   0  0  0  0  0  0  0  0  0  0  0  0
    4.9276    1.0814   -0.7513 H   0  0  0  0  0  0  0  0  0  0  0  0
    3.6740   -1.0444   -0.7803 H   0  0  0  0  0  0  0  0  0  0  0  0
    3.4653   -0.9727    0.9602 H   0  0  0  0  0  0  0  0  0  0  0  0
    2.1773    1.1602    0.7308 H   0  0  0  0  0  0  0  0  0  0  0  0
    2.3938    1.1022   -1.0105 H   0  0  0  0  0  0  0  0  0  0  0  0
    1.1772   -1.0990   -1.0661 H   0  0  0  0  0  0  0  0  0  0  0  0
    0.9332   -0.9902    0.6699 H   0  0  0  0  0  0  0  0  0  0  0  0
   -0.0123    1.3151   -0.8699 H   0  0  0  0  0  0  0  0  0  0  0  0
   -2.4969    1.6652    0.5482 H   0  0  0  0  0  0  0  0  0  0  0  0
   -2.2289    1.6984   -1.1870 H   0  0  0  0  0  0  0  0  0  0  0  0
  1  2  1  0
  2  3  1  0
  9 10  1  0
  9  7  1  0
 10 11  2  0
  3  4  1  0
 11 12  2  0
  6  7  1  0
  6  5  1  0
  7  8  2  0
  4  5  1  0
  1 13  1  0
  1 14  1  0
  2 15  1  0
  2 16  1  0
  3 17  1  0
  3 18  1  0
  4 19  1  0
  4 20  1  0
  5 21  1  0
  5 22  1  0
  6 23  1  0
  9 24  1  0
  9 25  1  0
M  CHG  2  11   1  12  -1
M  END
