
     RDKit          3D

 47 47  0  0  0  0  0  0  0  0999 V2000
   -5.2235    0.2273    0.0323 Se  0  0  0  0  0  0  0  0  0  0  0  0
   -3.7191   -0.7904   -0.7193 C   0  0  0  0  0  0  0  0  0  0  0  0
    2.5601    0.0139    0.3778 N   0  0  0  0  0  0  0  0  0  0  0  0
   -2.4490   -0.0930   -0.3670 C   0  0  0  0  0  0  0  0  0  0  0  0
   -1.8294   -0.3155    0.8604 C   0  0  0  0  0  0  0  0  0  0  0  0
   -0.6651    0.3595    1.1957 C   0  0  0  0  0  0  0  0  0  0  0  0
   -0.0961    1.2815    0.3230 C   0  0  0  0  0  0  0  0  0  0  0  0
    3.8127   -0.5669   -1.4142 O   0  0  0  0  0  0  0  0  0  0  0  0
   -0.7233    1.5100   -0.8994 C   0  0  0  0  0  0  0  0  0  0  0  0
    3.5256   -1.9659    0.3477 O   0  0  0  0  0  0  0  0  0  0  0  0
   -1.8835    0.8340   -1.2406 C   0  0  0  0  0  0  0  0  0  0  0  0
    1.1789    1.9993    0.6648 C   0  0  0  0  0  0  0  0  0  0  0  0
    2.3890    1.3719   -0.0456 C   0  0  1  0  0  0  0  0  0  0  0  0
    3.6511    2.1873    0.2163 C   0  0  0  0  0  0  0  0  0  0  0  0
    4.6914    4.2572   -0.2086 C   0  0  0  0  0  0  0  0  0  0  0  0
    4.2815   -3.0859   -0.1886 C   0  0  1  0  0  0  0  0  0  0  0  0
    5.7382   -2.7036   -0.4222 C   0  0  0  0  0  0  0  0  0  0  0  0
    4.1950   -4.1261    0.9215 C   0  0  0  0  0  0  0  0  0  0  0  0
    3.6287   -3.6276   -1.4545 C   0  0  0  0  0  0  0  0  0  0  0  0
   -3.7844   -1.7941   -0.2929 H   0  0  0  0  0  0  0  0  0  0  0  0
   -3.8758   -0.8479   -1.7983 H   0  0  0  0  0  0  0  0  0  0  0  0
    2.3524   -0.2126    1.3384 H   0  0  0  0  0  0  0  0  0  0  0  0
   -2.2532   -1.0281    1.5562 H   0  0  0  0  0  0  0  0  0  0  0  0
   -0.2001    0.1683    2.1559 H   0  0  0  0  0  0  0  0  0  0  0  0
   -0.3015    2.2265   -1.5949 H   0  0  0  0  0  0  0  0  0  0  0  0
   -2.3525    1.0277   -2.1982 H   0  0  0  0  0  0  0  0  0  0  0  0
    1.1038    3.0464    0.3705 H   0  0  0  0  0  0  0  0  0  0  0  0
    1.3434    1.9871    1.7454 H   0  0  0  0  0  0  0  0  0  0  0  0
    2.1997    1.3916   -1.1220 H   0  0  0  0  0  0  0  0  0  0  0  0
    4.8372    4.5048    0.8421 H   0  0  0  0  0  0  0  0  0  0  0  0
    5.6110    3.8351   -0.6122 H   0  0  0  0  0  0  0  0  0  0  0  0
    4.4346    5.1569   -0.7593 H   0  0  0  0  0  0  0  0  0  0  0  0
    6.1816   -2.2783    0.4795 H   0  0  0  0  0  0  0  0  0  0  0  0
    6.3039   -3.6013   -0.6756 H   0  0  0  0  0  0  0  0  0  0  0  0
    5.8585   -1.9941   -1.2375 H   0  0  0  0  0  0  0  0  0  0  0  0
    3.1600   -4.3936    1.1388 H   0  0  0  0  0  0  0  0  0  0  0  0
    4.7168   -5.0325    0.6145 H   0  0  0  0  0  0  0  0  0  0  0  0
    4.6593   -3.7682    1.8415 H   0  0  0  0  0  0  0  0  0  0  0  0
    3.6913   -2.9302   -2.2869 H   0  0  0  0  0  0  0  0  0  0  0  0
    4.1373   -4.5464   -1.7485 H   0  0  0  0  0  0  0  0  0  0  0  0
    2.5794   -3.8723   -1.2815 H   0  0  0  0  0  0  0  0  0  0  0  0
   -6.3782   -1.0524   -0.4171 O   0  0  0  0  0  0  0  0  0  0  0  0
   -5.0057    0.0860    1.6294 O   0  0  0  0  0  0  0  0  0  0  0  0
   -7.2668   -0.6764   -0.5016 H   0  0  0  0  0  0  0  0  0  0  0  0
    3.3555   -0.8312   -0.3218 C   0  0  0  0  0  0  0  0  0  0  0  0
    4.5754    1.8134    0.8890 O   0  0  0  0  0  0  0  0  0  0  0  0
    3.5902    3.3628   -0.3845 O   0  0  0  0  0  0  0  0  0  0  0  0
  1 42  1  1
  2  1  1  0
  2 20  1  0
  2 21  1  0
  3 13  1  0
  3 22  1  0
  4  2  1  0
  5  4  2  0
  5 23  1  0
  6  5  1  0
  6 24  1  0
 47 15  1  0
 47 14  1  0
  7  6  2  0
  7  9  1  0
  8 45  2  0
  9 11  2  0
  9 25  1  0
 10 45  1  0
 11  4  1  0
 11 26  1  0
 12  7  1  0
 12 27  1  0
 12 28  1  0
 13 12  1  0
 13 14  1  0
 13 29  1  6
 14 46  2  0
 45  3  1  0
 15 30  1  0
 15 31  1  0
 15 32  1  0
 16 10  1  1
 16 17  1  0
 17 33  1  0
 17 34  1  0
 17 35  1  0
 18 16  1  0
 18 36  1  0
 18 37  1  0
 18 38  1  0
 19 16  1  0
 19 39  1  0
 19 40  1  0
 19 41  1  0
  1 43  2  0
 42 44  1  0
M  END
