
     RDKit          3D

 43 45  0  0  0  0  0  0  0  0999 V2000
   -3.5101   -0.7965    1.2591 C   0  0  0  0  0  0  0  0  0  0  0  0
   -4.5452   -0.1033    0.5525 C   0  0  0  0  0  0  0  0  0  0  0  0
   -5.8937    0.1750    0.7895 C   0  0  0  0  0  0  0  0  0  0  0  0
   -6.5858    0.8989   -0.1626 C   0  0  0  0  0  0  0  0  0  0  0  0
   -5.9597    1.3452   -1.3361 C   0  0  0  0  0  0  0  0  0  0  0  0
   -4.6250    1.0806   -1.5930 C   0  0  0  0  0  0  0  0  0  0  0  0
   -3.9509    0.3526   -0.6272 C   0  0  0  0  0  0  0  0  0  0  0  0
   -2.6544   -0.0206   -0.6668 O   0  0  0  0  0  0  0  0  0  0  0  0
   -2.4092   -0.7128    0.4796 C   0  0  0  0  0  0  0  0  0  0  0  0
   -1.0583   -1.2590    0.7194 C   0  0  0  0  0  0  0  0  0  0  0  0
   -0.8178   -1.8162    1.7814 O   0  0  0  0  0  0  0  0  0  0  0  0
   -0.1779   -1.0957   -0.2798 N   0  0  0  0  0  0  0  0  0  0  0  0
    1.1895   -1.5680   -0.2472 C   0  0  0  0  0  0  0  0  0  0  0  0
    2.1699   -0.4349   -0.5365 C   0  0  1  0  0  0  0  0  0  0  0  0
    2.0533    0.5892    0.4820 N   0  0  0  0  0  0  0  0  0  0  0  0
    2.8846    1.7542    0.2218 C   0  0  1  0  0  0  0  0  0  0  0  0
    2.5941    2.8427    1.2420 C   0  0  0  0  0  0  0  0  0  0  0  0
    4.3509    1.3387    0.2128 C   0  0  1  0  0  0  0  0  0  0  0  0
    4.7417    0.9394    1.5033 O   0  0  0  0  0  0  0  0  0  0  0  0
    4.5544    0.2154   -0.8036 C   0  0  1  0  0  0  0  0  0  0  0  0
    5.8751   -0.2891   -0.7551 O   0  0  0  0  0  0  0  0  0  0  0  0
    3.6073   -0.9495   -0.5447 C   0  0  2  0  0  0  0  0  0  0  0  0
    3.7233   -1.9339   -1.5451 O   0  0  0  0  0  0  0  0  0  0  0  0
   -3.5814   -1.2933    2.2128 H   0  0  0  0  0  0  0  0  0  0  0  0
   -6.3813   -0.1682    1.6925 H   0  0  0  0  0  0  0  0  0  0  0  0
   -7.6307    1.1295   -0.0040 H   0  0  0  0  0  0  0  0  0  0  0  0
   -6.5328    1.9103   -2.0590 H   0  0  0  0  0  0  0  0  0  0  0  0
   -4.1392    1.4241   -2.4963 H   0  0  0  0  0  0  0  0  0  0  0  0
   -0.4954   -0.6879   -1.1461 H   0  0  0  0  0  0  0  0  0  0  0  0
    1.3896   -1.9838    0.7390 H   0  0  0  0  0  0  0  0  0  0  0  0
    1.3140   -2.3654   -0.9807 H   0  0  0  0  0  0  0  0  0  0  0  0
    1.9513   -0.0390   -1.5466 H   0  0  0  0  0  0  0  0  0  0  0  0
    1.0871    0.8879    0.5406 H   0  0  0  0  0  0  0  0  0  0  0  0
    2.6856    2.1675   -0.7833 H   0  0  0  0  0  0  0  0  0  0  0  0
    2.7721    2.4928    2.2582 H   0  0  0  0  0  0  0  0  0  0  0  0
    3.2229    3.7155    1.0625 H   0  0  0  0  0  0  0  0  0  0  0  0
    1.5548    3.1686    1.1721 H   0  0  0  0  0  0  0  0  0  0  0  0
    4.9400    2.2084   -0.1216 H   0  0  0  0  0  0  0  0  0  0  0  0
    5.6208    0.5518    1.4303 H   0  0  0  0  0  0  0  0  0  0  0  0
    4.3248    0.6156   -1.8019 H   0  0  0  0  0  0  0  0  0  0  0  0
    6.4563    0.3219   -1.2186 H   0  0  0  0  0  0  0  0  0  0  0  0
    3.8231   -1.3669    0.4499 H   0  0  0  0  0  0  0  0  0  0  0  0
    4.6378   -2.2341   -1.5621 H   0  0  0  0  0  0  0  0  0  0  0  0
  1  2  1  0
  1  9  2  0
  2  3  2  0
  2  7  1  0
  3  4  1  0
  4  5  2  0
  5  6  1  0
  6  7  2  0
  7  8  1  0
  8  9  1  0
  9 10  1  0
 10 11  2  0
 10 12  1  0
 12 13  1  0
 13 14  1  0
 14 15  1  0
 14 22  1  0
 15 16  1  0
 16 17  1  0
 16 18  1  0
 18 19  1  0
 18 20  1  0
 20 21  1  0
 20 22  1  0
 22 23  1  0
  1 24  1  0
  3 25  1  0
  4 26  1  0
  5 27  1  0
  6 28  1  0
 12 29  1  0
 13 30  1  0
 13 31  1  0
 14 32  1  6
 15 33  1  0
 16 34  1  6
 17 35  1  0
 17 36  1  0
 17 37  1  0
 18 38  1  6
 19 39  1  0
 20 40  1  6
 21 41  1  0
 22 42  1  1
 23 43  1  0
M  END
