
     RDKit          3D

 36 35  0  0  0  0  0  0  0  0999 V2000
    4.8066   -1.1122   -0.4983 C   0  0  0  0  0  0  0  0  0  0  0  0
    3.5014   -0.8857    0.2521 C   0  0  0  0  0  0  0  0  0  0  0  0
    2.4933   -0.1340   -0.6069 C   0  0  0  0  0  0  0  0  0  0  0  0
    1.2393    0.1494    0.0792 N   0  0  0  0  0  0  0  0  0  0  0  0
    1.1459    1.4481    0.7293 C   0  0  0  0  0  0  0  0  0  0  0  0
    0.6350    2.5513   -0.1878 C   0  0  0  0  0  0  0  0  0  0  0  0
    0.6306    3.9039    0.5075 C   0  0  0  0  0  0  0  0  0  0  0  0
    0.2813   -0.7906    0.0826 C   0  0  0  0  0  0  0  0  0  0  0  0
    0.4527   -1.9051   -0.4038 O   0  0  0  0  0  0  0  0  0  0  0  0
   -1.0815   -0.5124    0.7245 C   0  0  2  0  0  0  0  0  0  0  0  0
   -1.2818   -1.4102    1.7869 O   0  0  0  0  0  0  0  0  0  0  0  0
   -2.1608   -0.6447   -0.3625 C   0  0  2  0  0  0  0  0  0  0  0  0
   -1.8083    0.1131   -1.4980 O   0  0  0  0  0  0  0  0  0  0  0  0
   -3.5279   -0.2748    0.1814 C   0  0  0  0  0  0  0  0  0  0  0  0
   -4.4938   -0.5333   -0.8092 O   0  0  0  0  0  0  0  0  0  0  0  0
    5.5248   -1.6581    0.1132 H   0  0  0  0  0  0  0  0  0  0  0  0
    4.6429   -1.6892   -1.4103 H   0  0  0  0  0  0  0  0  0  0  0  0
    5.2683   -0.1659   -0.7864 H   0  0  0  0  0  0  0  0  0  0  0  0
    3.0745   -1.8435    0.5557 H   0  0  0  0  0  0  0  0  0  0  0  0
    3.6959   -0.3225    1.1691 H   0  0  0  0  0  0  0  0  0  0  0  0
    2.9182    0.8218   -0.9213 H   0  0  0  0  0  0  0  0  0  0  0  0
    2.2868   -0.6959   -1.5184 H   0  0  0  0  0  0  0  0  0  0  0  0
    0.5308    1.3844    1.6263 H   0  0  0  0  0  0  0  0  0  0  0  0
    2.1462    1.7062    1.0843 H   0  0  0  0  0  0  0  0  0  0  0  0
    1.2600    2.5920   -1.0838 H   0  0  0  0  0  0  0  0  0  0  0  0
   -0.3725    2.3021   -0.5279 H   0  0  0  0  0  0  0  0  0  0  0  0
   -0.0058    3.8925    1.3942 H   0  0  0  0  0  0  0  0  0  0  0  0
    1.6348    4.1894    0.8250 H   0  0  0  0  0  0  0  0  0  0  0  0
    0.2587    4.6845   -0.1555 H   0  0  0  0  0  0  0  0  0  0  0  0
   -1.1487    0.4861    1.1619 H   0  0  0  0  0  0  0  0  0  0  0  0
   -1.1902   -2.3064    1.4411 H   0  0  0  0  0  0  0  0  0  0  0  0
   -2.1829   -1.6888   -0.6935 H   0  0  0  0  0  0  0  0  0  0  0  0
   -2.0348    1.0370   -1.3478 H   0  0  0  0  0  0  0  0  0  0  0  0
   -3.7161   -0.8526    1.0929 H   0  0  0  0  0  0  0  0  0  0  0  0
   -3.5215    0.7865    0.4759 H   0  0  0  0  0  0  0  0  0  0  0  0
   -5.3565   -0.3080   -0.4500 H   0  0  0  0  0  0  0  0  0  0  0  0
  1  2  1  0
  2  3  1  0
  3  4  1  0
  4  5  1  0
  4  8  1  0
  5  6  1  0
  6  7  1  0
  8  9  2  0
  8 10  1  0
 10 11  1  0
 10 12  1  0
 12 13  1  0
 12 14  1  0
 14 15  1  0
  1 16  1  0
  1 17  1  0
  1 18  1  0
  2 19  1  0
  2 20  1  0
  3 21  1  0
  3 22  1  0
  5 23  1  0
  5 24  1  0
  6 25  1  0
  6 26  1  0
  7 27  1  0
  7 28  1  0
  7 29  1  0
 10 30  1  1
 11 31  1  0
 12 32  1  6
 13 33  1  0
 14 34  1  0
 14 35  1  0
 15 36  1  0
M  END
