
     RDKit          3D

 56 58  0  0  0  0  0  0  0  0999 V2000
   -1.9492    0.0830   -2.2608 C   0  0  0  0  0  0  0  0  0  0  0  0
   -1.9888    1.3350   -2.8619 C   0  0  0  0  0  0  0  0  0  0  0  0
   -2.1022    2.4775   -2.0830 C   0  0  0  0  0  0  0  0  0  0  0  0
   -2.1756    2.3578   -0.7004 C   0  0  0  0  0  0  0  0  0  0  0  0
   -2.1330    1.1067   -0.1027 C   0  0  0  0  0  0  0  0  0  0  0  0
   -2.0236   -0.0478   -0.8775 C   0  0  0  0  0  0  0  0  0  0  0  0
   -1.9652   -1.4166   -0.2315 C   0  0  2  0  0  0  0  0  0  0  0  0
   -3.1946   -1.7320    0.6138 C   0  0  2  0  0  0  0  0  0  0  0  0
   -3.1777   -3.1463    1.2183 C   0  0  0  0  0  0  0  0  0  0  0  0
   -4.6563   -3.5775    1.3391 C   0  0  0  0  0  0  0  0  0  0  0  0
   -5.4794   -2.4275    0.7338 C   0  0  0  0  0  0  0  0  0  0  0  0
   -4.5002   -1.6987   -0.1800 C   0  0  0  0  0  0  0  0  0  0  0  0
   -0.6707   -1.4801    0.5727 C   0  0  0  0  0  0  0  0  0  0  0  0
   -0.6189   -1.1783    1.7554 O   0  0  0  0  0  0  0  0  0  0  0  0
    0.4032   -1.8382   -0.1545 N   0  0  0  0  0  0  0  0  0  0  0  0
    1.7717   -1.7719    0.3027 C   0  0  0  0  0  0  0  0  0  0  0  0
    2.5351   -0.6287   -0.3674 C   0  0  1  0  0  0  0  0  0  0  0  0
    1.8773    0.6348   -0.0961 N   0  0  0  0  0  0  0  0  0  0  0  0
    2.4956    1.7665   -0.7686 C   0  0  1  0  0  0  0  0  0  0  0  0
    1.6599    3.0169   -0.5528 C   0  0  0  0  0  0  0  0  0  0  0  0
    3.9294    1.9304   -0.2782 C   0  0  1  0  0  0  0  0  0  0  0  0
    3.9313    2.3133    1.0753 O   0  0  0  0  0  0  0  0  0  0  0  0
    4.6886    0.6210   -0.4879 C   0  0  1  0  0  0  0  0  0  0  0  0
    5.9857    0.6807    0.0761 O   0  0  0  0  0  0  0  0  0  0  0  0
    3.9654   -0.5525    0.1603 C   0  0  2  0  0  0  0  0  0  0  0  0
    4.6121   -1.7707   -0.1265 O   0  0  0  0  0  0  0  0  0  0  0  0
   -1.8675   -0.8037   -2.8786 H   0  0  0  0  0  0  0  0  0  0  0  0
   -1.9337    1.4151   -3.9399 H   0  0  0  0  0  0  0  0  0  0  0  0
   -2.1348    3.4543   -2.5481 H   0  0  0  0  0  0  0  0  0  0  0  0
   -2.2614    3.2429   -0.0830 H   0  0  0  0  0  0  0  0  0  0  0  0
   -2.1874    1.0310    0.9761 H   0  0  0  0  0  0  0  0  0  0  0  0
   -1.9129   -2.1620   -1.0335 H   0  0  0  0  0  0  0  0  0  0  0  0
   -3.2701   -0.9998    1.4242 H   0  0  0  0  0  0  0  0  0  0  0  0
   -2.6382   -3.8264    0.5529 H   0  0  0  0  0  0  0  0  0  0  0  0
   -2.6562   -3.1683    2.1749 H   0  0  0  0  0  0  0  0  0  0  0  0
   -4.8296   -4.5034    0.7884 H   0  0  0  0  0  0  0  0  0  0  0  0
   -4.9422   -3.7730    2.3731 H   0  0  0  0  0  0  0  0  0  0  0  0
   -6.3716   -2.7769    0.2122 H   0  0  0  0  0  0  0  0  0  0  0  0
   -5.8171   -1.7504    1.5227 H   0  0  0  0  0  0  0  0  0  0  0  0
   -4.8198   -0.6876   -0.4375 H   0  0  0  0  0  0  0  0  0  0  0  0
   -4.3776   -2.2491   -1.1200 H   0  0  0  0  0  0  0  0  0  0  0  0
    0.2564   -2.0915   -1.1192 H   0  0  0  0  0  0  0  0  0  0  0  0
    1.7706   -1.6340    1.3835 H   0  0  0  0  0  0  0  0  0  0  0  0
    2.2632   -2.7204    0.0869 H   0  0  0  0  0  0  0  0  0  0  0  0
    2.5881   -0.8396   -1.4522 H   0  0  0  0  0  0  0  0  0  0  0  0
    0.9085    0.5781   -0.3879 H   0  0  0  0  0  0  0  0  0  0  0  0
    2.5709    1.5930   -1.8572 H   0  0  0  0  0  0  0  0  0  0  0  0
    1.5567    3.2462    0.5070 H   0  0  0  0  0  0  0  0  0  0  0  0
    2.1121    3.8753   -1.0502 H   0  0  0  0  0  0  0  0  0  0  0  0
    0.6584    2.8848   -0.9668 H   0  0  0  0  0  0  0  0  0  0  0  0
    4.4059    2.7039   -0.9021 H   0  0  0  0  0  0  0  0  0  0  0  0
    4.8423    2.2617    1.3849 H   0  0  0  0  0  0  0  0  0  0  0  0
    4.7435    0.4300   -1.5695 H   0  0  0  0  0  0  0  0  0  0  0  0
    6.5619    1.1657   -0.5228 H   0  0  0  0  0  0  0  0  0  0  0  0
    3.9150   -0.3794    1.2461 H   0  0  0  0  0  0  0  0  0  0  0  0
    5.5315   -1.6880    0.1474 H   0  0  0  0  0  0  0  0  0  0  0  0
  1  2  2  0
  1  6  1  0
  2  3  1  0
  3  4  2  0
  4  5  1  0
  5  6  2  0
  6  7  1  0
  7  8  1  0
  7 13  1  0
  8  9  1  0
  8 12  1  0
  9 10  1  0
 10 11  1  0
 11 12  1  0
 13 14  2  0
 13 15  1  0
 15 16  1  0
 16 17  1  0
 17 18  1  0
 17 25  1  0
 18 19  1  0
 19 20  1  0
 19 21  1  0
 21 22  1  0
 21 23  1  0
 23 24  1  0
 23 25  1  0
 25 26  1  0
  1 27  1  0
  2 28  1  0
  3 29  1  0
  4 30  1  0
  5 31  1  0
  7 32  1  6
  8 33  1  1
  9 34  1  0
  9 35  1  0
 10 36  1  0
 10 37  1  0
 11 38  1  0
 11 39  1  0
 12 40  1  0
 12 41  1  0
 15 42  1  0
 16 43  1  0
 16 44  1  0
 17 45  1  6
 18 46  1  0
 19 47  1  6
 20 48  1  0
 20 49  1  0
 20 50  1  0
 21 51  1  6
 22 52  1  0
 23 53  1  6
 24 54  1  0
 25 55  1  1
 26 56  1  0
M  END
