
     RDKit          3D

 60 64  0  0  0  0  0  0  0  0999 V2000
  -40.1764   31.4661  -25.3204 N   0  0  0  0  0  0  0  0  0  0  0  0
  -38.7207   28.4877  -19.1171 N   0  0  0  0  0  0  0  0  0  0  0  0
  -38.7691   32.0380  -23.3962 N   0  0  0  0  0  0  0  0  0  0  0  0
  -37.7219   34.7361  -21.3368 N   0  0  0  0  0  0  0  0  0  0  0  0
  -38.4262   30.8543  -20.5542 N   0  0  0  0  0  0  0  0  0  0  0  0
  -37.7731   26.2092  -18.9912 C   0  0  0  0  0  0  0  0  0  0  0  0
  -37.3602   29.0638  -21.8527 C   0  0  0  0  0  0  0  0  0  0  0  0
  -40.2760   30.0056  -25.3472 C   0  0  0  0  0  0  0  0  0  0  0  0
  -41.2029   31.3480  -22.9580 O   0  0  0  0  0  0  0  0  0  0  0  0
  -40.7761   33.5563  -24.0107 O   0  0  0  0  0  0  0  0  0  0  0  0
  -41.1177   37.4429  -21.7676 C   0  0  0  0  0  0  0  0  0  0  0  0
  -39.9532   36.7548  -22.0658 C   0  0  0  0  0  0  0  0  0  0  0  0
  -38.8359   37.7979  -20.2143 C   0  0  0  0  0  0  0  0  0  0  0  0
  -38.8293   27.1801  -18.4889 C   0  0  0  0  0  0  0  0  0  0  0  0
  -38.8974   32.0113  -25.7904 C   0  0  0  0  0  0  0  0  0  0  0  0
  -37.9202   32.0264  -24.5984 C   0  0  0  0  0  0  0  0  0  0  0  0
  -37.5517   36.1584  -21.6190 C   0  0  0  0  0  0  0  0  0  0  0  0
  -39.4053   28.6814  -20.3832 C   0  0  0  0  0  0  0  0  0  0  0  0
  -38.1073   34.0019  -22.3730 N   0  0  0  0  0  0  0  0  0  0  0  0
  -38.1761   29.5308  -18.4556 C   0  0  0  0  0  0  0  0  0  0  0  0
  -41.1268   38.3088  -20.6936 C   0  0  0  0  0  0  0  0  0  0  0  0
  -38.8051   36.9284  -21.2965 C   0  0  0  0  0  0  0  0  0  0  0  0
  -39.9976   38.4916  -19.9172 C   0  0  0  0  0  0  0  0  0  0  0  0
  -37.7815   32.0516  -18.7670 C   0  0  0  0  0  0  0  0  0  0  0  0
  -38.3698   32.7463  -22.2483 C   0  0  0  0  0  0  0  0  0  0  0  0
  -38.1330   30.7898  -19.2026 C   0  0  0  0  0  0  0  0  0  0  0  0
  -37.5962   34.2886  -20.0325 C   0  0  0  0  0  0  0  0  0  0  0  0
  -37.8578   32.8942  -19.8952 C   0  0  0  0  0  0  0  0  0  0  0  0
  -38.2489   32.1136  -20.9805 C   0  0  0  0  0  0  0  0  0  0  0  0
  -38.6632   29.6296  -21.3096 C   0  0  1  0  0  0  0  0  0  0  0  0
  -40.3968   32.1701  -23.8370 S   0  0  2  0  0  0  0  0  0  0  0  0
  -37.9199   25.2288  -18.5375 H   0  0  0  0  0  0  0  0  0  0  0  0
  -37.8236   26.0822  -20.0738 H   0  0  0  0  0  0  0  0  0  0  0  0
  -36.7716   26.5540  -18.7345 H   0  0  0  0  0  0  0  0  0  0  0  0
  -37.5649   28.1830  -22.4610 H   0  0  0  0  0  0  0  0  0  0  0  0
  -36.8526   29.7944  -22.4830 H   0  0  0  0  0  0  0  0  0  0  0  0
  -36.6783   28.7781  -21.0521 H   0  0  0  0  0  0  0  0  0  0  0  0
  -39.5101   29.5001  -24.7518 H   0  0  0  0  0  0  0  0  0  0  0  0
  -41.2582   29.6903  -25.0080 H   0  0  0  0  0  0  0  0  0  0  0  0
  -40.1651   29.6949  -26.3834 H   0  0  0  0  0  0  0  0  0  0  0  0
  -37.2846   33.3493  -17.4948 H   0  0  0  0  0  0  0  0  0  0  0  0
  -42.0120   37.3137  -22.3628 H   0  0  0  0  0  0  0  0  0  0  0  0
  -39.9490   36.0722  -22.9064 H   0  0  0  0  0  0  0  0  0  0  0  0
  -37.9583   37.9381  -19.5972 H   0  0  0  0  0  0  0  0  0  0  0  0
  -38.7503   27.3013  -17.4109 H   0  0  0  0  0  0  0  0  0  0  0  0
  -39.8299   26.7935  -18.6926 H   0  0  0  0  0  0  0  0  0  0  0  0
  -38.5268   31.3967  -26.6065 H   0  0  0  0  0  0  0  0  0  0  0  0
  -39.0542   33.0187  -26.1733 H   0  0  0  0  0  0  0  0  0  0  0  0
  -37.2810   32.9059  -24.6412 H   0  0  0  0  0  0  0  0  0  0  0  0
  -37.2939   31.1348  -24.5752 H   0  0  0  0  0  0  0  0  0  0  0  0
  -36.7046   36.5339  -21.0491 H   0  0  0  0  0  0  0  0  0  0  0  0
  -37.3041   36.2399  -22.6752 H   0  0  0  0  0  0  0  0  0  0  0  0
  -39.4926   27.7171  -20.8823 H   0  0  0  0  0  0  0  0  0  0  0  0
  -40.4226   29.0498  -20.2134 H   0  0  0  0  0  0  0  0  0  0  0  0
  -39.3335   29.8650  -22.1319 H   0  0  0  0  0  0  0  0  0  0  0  0
  -37.7240   29.4647  -17.3191 O   0  0  0  0  0  0  0  0  0  0  0  0
  -37.2781   35.0443  -19.1197 O   0  0  0  0  0  0  0  0  0  0  0  0
  -37.4457   32.3960  -17.5229 O   0  0  0  0  0  0  0  0  0  0  0  0
  -42.2419   38.9854  -20.3950 F   0  0  0  0  0  0  0  0  0  0  0  0
  -40.0540   39.5775  -18.5764 Cl  0  0  0  0  0  0  0  0  0  0  0  0
  1  8  1  0
  1 15  1  0
 31  1  1  6
  2 14  1  0
  2 18  1  0
  2 20  1  0
  3 16  1  0
  3 25  1  0
  3 31  1  0
  4 17  1  0
  4 19  1  0
  4 27  1  0
  5 26  1  0
  5 29  1  0
  5 30  1  0
  6 14  1  0
  7 30  1  0
 56 20  2  0
 57 27  2  0
  9 31  2  0
 10 31  2  0
 58 24  1  0
 59 21  1  0
 60 23  1  0
 11 12  2  0
 11 21  1  0
 12 22  1  0
 13 22  2  0
 13 23  1  0
 15 16  1  0
 17 22  1  0
 18 30  1  0
 19 25  2  0
 20 26  1  0
 21 23  2  0
 24 26  2  0
 24 28  1  0
 25 29  1  0
 27 28  1  0
 28 29  2  0
  6 32  1  0
  6 33  1  0
  6 34  1  0
  7 35  1  0
  7 36  1  0
  7 37  1  0
  8 38  1  0
  8 39  1  0
  8 40  1  0
 58 41  1  0
 11 42  1  0
 12 43  1  0
 13 44  1  0
 14 45  1  0
 14 46  1  0
 15 47  1  0
 15 48  1  0
 16 49  1  0
 16 50  1  0
 17 51  1  0
 17 52  1  0
 18 53  1  0
 18 54  1  0
 30 55  1  6
M  END
