
     RDKit          3D

 62 65  0  0  0  0  0  0  0  0999 V2000
  -11.5174   -0.3727   -0.6587 F   0  0  0  0  0  0  0  0  0  0  0  0
  -10.2383   -0.0372   -0.4076 C   0  0  0  0  0  0  0  0  0  0  0  0
   -9.9228    1.2909   -0.1828 C   0  0  0  0  0  0  0  0  0  0  0  0
   -8.6073    1.6342    0.0720 C   0  0  0  0  0  0  0  0  0  0  0  0
   -9.2748   -1.0209   -0.3822 C   0  0  0  0  0  0  0  0  0  0  0  0
   -7.9521   -0.6744   -0.1253 C   0  0  0  0  0  0  0  0  0  0  0  0
   -7.6128    0.6555    0.1032 C   0  0  0  0  0  0  0  0  0  0  0  0
   -6.3596    1.0893    0.3623 O   0  0  0  0  0  0  0  0  0  0  0  0
   -5.3047    0.1506    0.3652 C   0  0  0  0  0  0  0  0  0  0  0  0
   -4.0427    0.9427    0.6532 C   0  0  0  0  0  0  0  0  0  0  0  0
   -2.6469   -0.2203    0.6260 S   0  0  0  0  0  0  0  0  0  0  0  0
   -1.3762    0.8655    1.1085 C   0  0  0  0  0  0  0  0  0  0  0  0
   -1.4693    2.1473    1.3105 N   0  0  0  0  0  0  0  0  0  0  0  0
   -0.2399    2.5806    1.6953 N   0  0  0  0  0  0  0  0  0  0  0  0
   -0.1097    0.4359    1.3418 N   0  0  0  0  0  0  0  0  0  0  0  0
    0.3818   -0.9214    1.2404 C   0  0  0  0  0  0  0  0  0  0  0  0
    0.8659   -1.3131   -0.1344 C   0  0  0  0  0  0  0  0  0  0  0  0
    1.7898   -2.3494   -0.2387 C   0  0  0  0  0  0  0  0  0  0  0  0
    2.2247   -2.8020   -1.4744 C   0  0  0  0  0  0  0  0  0  0  0  0
    1.7245   -2.1981   -2.6108 C   0  0  0  0  0  0  0  0  0  0  0  0
    2.1462   -2.6202   -3.8135 F   0  0  0  0  0  0  0  0  0  0  0  0
    0.8137   -1.1631   -2.5467 C   0  0  0  0  0  0  0  0  0  0  0  0
    0.3865   -0.7254   -1.2997 C   0  0  0  0  0  0  0  0  0  0  0  0
    0.5655    1.5629    1.7129 C   0  0  0  0  0  0  0  0  0  0  0  0
    2.0059    1.5948    2.1199 C   0  0  2  0  0  0  0  0  0  0  0  0
    2.3897    2.9397    2.7215 C   0  0  0  0  0  0  0  0  0  0  0  0
    2.8619    1.2766    0.9925 N   0  0  0  0  0  0  0  0  0  0  0  0
    3.7275    0.2456    0.9778 C   0  0  0  0  0  0  0  0  0  0  0  0
    3.8100   -0.5862    1.8652 O   0  0  0  0  0  0  0  0  0  0  0  0
    4.5670    0.1658   -0.2624 C   0  0  0  0  0  0  0  0  0  0  0  0
    5.9524   -0.0306   -0.2275 C   0  0  0  0  0  0  0  0  0  0  0  0
    6.7150   -0.0528    1.0674 C   0  0  1  0  0  0  0  0  0  0  0  0
    8.0184    0.1894    0.8766 F   0  0  0  0  0  0  0  0  0  0  0  0
    6.2798    0.8800    1.9235 F   0  0  0  0  0  0  0  0  0  0  0  0
    6.6400   -1.2350    1.6877 F   0  0  0  0  0  0  0  0  0  0  0  0
    3.9236    0.2253   -1.4919 C   0  0  0  0  0  0  0  0  0  0  0  0
    4.6280    0.0677   -2.6758 C   0  0  0  0  0  0  0  0  0  0  0  0
    5.9952   -0.1402   -2.6370 C   0  0  0  0  0  0  0  0  0  0  0  0
    6.6548   -0.1785   -1.4162 C   0  0  0  0  0  0  0  0  0  0  0  0
  -10.6921    2.0511   -0.2070 H   0  0  0  0  0  0  0  0  0  0  0  0
   -9.5396   -2.0548   -0.5600 H   0  0  0  0  0  0  0  0  0  0  0  0
   -8.3439    2.6692    0.2483 H   0  0  0  0  0  0  0  0  0  0  0  0
   -7.2111   -1.4611   -0.1095 H   0  0  0  0  0  0  0  0  0  0  0  0
   -5.4614   -0.6139    1.1341 H   0  0  0  0  0  0  0  0  0  0  0  0
   -5.2310   -0.3540   -0.6046 H   0  0  0  0  0  0  0  0  0  0  0  0
   -3.8842    1.7078   -0.1055 H   0  0  0  0  0  0  0  0  0  0  0  0
   -4.0933    1.4131    1.6344 H   0  0  0  0  0  0  0  0  0  0  0  0
    1.1792   -1.0561    1.9704 H   0  0  0  0  0  0  0  0  0  0  0  0
   -0.4234   -1.5888    1.5583 H   0  0  0  0  0  0  0  0  0  0  0  0
    2.1861   -2.8100    0.6573 H   0  0  0  0  0  0  0  0  0  0  0  0
   -0.3245    0.0888   -1.2642 H   0  0  0  0  0  0  0  0  0  0  0  0
    2.9520   -3.5993   -1.5478 H   0  0  0  0  0  0  0  0  0  0  0  0
    0.4412   -0.7009   -3.4514 H   0  0  0  0  0  0  0  0  0  0  0  0
    2.1687    0.8197    2.8715 H   0  0  0  0  0  0  0  0  0  0  0  0
    2.2791    3.7458    1.9971 H   0  0  0  0  0  0  0  0  0  0  0  0
    1.7718    3.1727    3.5867 H   0  0  0  0  0  0  0  0  0  0  0  0
    3.4292    2.9045    3.0440 H   0  0  0  0  0  0  0  0  0  0  0  0
    2.9185    1.9636    0.2555 H   0  0  0  0  0  0  0  0  0  0  0  0
    2.8526    0.3752   -1.5289 H   0  0  0  0  0  0  0  0  0  0  0  0
    7.7265   -0.3169   -1.4094 H   0  0  0  0  0  0  0  0  0  0  0  0
    4.1054    0.1098   -3.6220 H   0  0  0  0  0  0  0  0  0  0  0  0
    6.5589   -0.2638   -3.5516 H   0  0  0  0  0  0  0  0  0  0  0  0
  1  2  1  0
  2  3  2  0
  2  5  1  0
  3  4  1  0
  4  7  2  0
  5  6  2  0
  6  7  1  0
  7  8  1  0
  8  9  1  0
  9 10  1  0
 10 11  1  0
 11 12  1  0
 12 13  2  0
 12 15  1  0
 13 14  1  0
 14 24  2  0
 15 16  1  0
 15 24  1  0
 16 17  1  0
 17 18  2  0
 17 23  1  0
 18 19  1  0
 19 20  2  0
 20 21  1  0
 20 22  1  0
 22 23  2  0
 24 25  1  0
 25 26  1  0
 25 27  1  0
 27 28  1  0
 28 29  2  0
 28 30  1  0
 30 31  2  0
 30 36  1  0
 31 32  1  0
 31 39  1  0
 32 33  1  6
 32 34  1  0
 32 35  1  0
 36 37  2  0
 37 38  1  0
 38 39  2  0
  3 40  1  0
  5 41  1  0
  4 42  1  0
  6 43  1  0
  9 44  1  0
  9 45  1  0
 10 46  1  0
 10 47  1  0
 16 48  1  0
 16 49  1  0
 18 50  1  0
 23 51  1  0
 19 52  1  0
 22 53  1  0
 25 54  1  1
 26 55  1  0
 26 56  1  0
 26 57  1  0
 27 58  1  0
 36 59  1  0
 39 60  1  0
 37 61  1  0
 38 62  1  0
M  END
