
     RDKit          3D

 34 36  0  0  0  0  0  0  0  0999 V2000
    3.6632   -2.1780    0.9477 O   0  0  0  0  0  0  0  0  0  0  0  0
    3.9824   -1.3432    0.1126 C   0  0  0  0  0  0  0  0  0  0  0  0
    5.0593   -1.4731   -0.6743 N   0  0  0  0  0  0  0  0  0  0  0  0
    3.1625   -0.1066   -0.0717 C   0  0  0  0  0  0  0  0  0  0  0  0
    1.8694   -0.1150    0.4370 C   0  0  0  0  0  0  0  0  0  0  0  0
    1.1303    1.0336    0.2540 C   0  0  0  0  0  0  0  0  0  0  0  0
    3.6489    1.0549   -0.6892 C   0  0  0  0  0  0  0  0  0  0  0  0
    2.9497    2.1639   -0.8433 N   0  0  0  0  0  0  0  0  0  0  0  0
    1.7014    2.1522   -0.3857 C   0  0  0  0  0  0  0  0  0  0  0  0
    0.7145    3.1880   -0.4133 C   0  0  0  0  0  0  0  0  0  0  0  0
   -0.3982    2.6928    0.1743 C   0  0  0  0  0  0  0  0  0  0  0  0
   -0.1696    1.3846    0.5842 N   0  0  0  0  0  0  0  0  0  0  0  0
   -1.2883    0.4114    1.3713 S   0  0  1  0  0  0  0  0  0  0  0  0
   -0.6104   -0.1400    2.5219 O   0  0  0  0  0  0  0  0  0  0  0  0
   -2.4880    1.2010    1.5184 O   0  0  0  0  0  0  0  0  0  0  0  0
   -1.6004   -0.9452    0.2595 C   0  0  0  0  0  0  0  0  0  0  0  0
   -2.5000   -0.8894   -0.8063 C   0  0  0  0  0  0  0  0  0  0  0  0
   -3.1252    0.3546   -1.2317 N   0  0  0  0  0  0  0  0  0  0  0  0
   -4.3095    0.3355   -1.4435 O   0  0  0  0  0  0  0  0  0  0  0  0
   -2.4026    1.3088   -1.3799 O   0  0  0  0  0  0  0  0  0  0  0  0
   -1.0342   -2.1675    0.5898 C   0  0  0  0  0  0  0  0  0  0  0  0
   -1.3168   -3.2991   -0.1633 C   0  0  0  0  0  0  0  0  0  0  0  0
   -2.2032   -3.2253   -1.2216 C   0  0  0  0  0  0  0  0  0  0  0  0
   -2.8125   -2.0180   -1.5357 C   0  0  0  0  0  0  0  0  0  0  0  0
    5.6176   -2.3089   -0.6118 H   0  0  0  0  0  0  0  0  0  0  0  0
    5.2368   -0.8715   -1.4592 H   0  0  0  0  0  0  0  0  0  0  0  0
    1.4972   -0.9945    0.9416 H   0  0  0  0  0  0  0  0  0  0  0  0
    4.6684    1.0953   -1.0563 H   0  0  0  0  0  0  0  0  0  0  0  0
    0.8264    4.1799   -0.8198 H   0  0  0  0  0  0  0  0  0  0  0  0
   -1.3491    3.1655    0.3521 H   0  0  0  0  0  0  0  0  0  0  0  0
   -0.3835   -2.2579    1.4476 H   0  0  0  0  0  0  0  0  0  0  0  0
   -3.5103   -1.9600   -2.3592 H   0  0  0  0  0  0  0  0  0  0  0  0
   -0.8521   -4.2386    0.0996 H   0  0  0  0  0  0  0  0  0  0  0  0
   -2.4358   -4.1050   -1.8049 H   0  0  0  0  0  0  0  0  0  0  0  0
  1  2  2  0
  2  3  1  0
  2  4  1  0
  4  5  2  0
  4  7  1  0
  5  6  1  0
  6  9  2  0
  6 12  1  0
  7  8  2  0
  8  9  1  0
  9 10  1  0
 10 11  2  0
 11 12  1  0
 12 13  1  0
 13 14  2  0
 13 15  2  0
 13 16  1  6
 16 17  2  0
 16 21  1  0
 17 18  1  0
 17 24  1  0
 18 19  1  0
 18 20  2  0
 21 22  2  0
 22 23  1  0
 23 24  2  0
  3 25  1  0
  3 26  1  0
  5 27  1  0
  7 28  1  0
 10 29  1  0
 11 30  1  0
 21 31  1  0
 24 32  1  0
 22 33  1  0
 23 34  1  0
M  CHG  2  18   1  19  -1
M  END
