
     RDKit          3D

 31 33  0  0  0  0  0  0  0  0999 V2000
    1.6999   -0.4079    0.0519 C   0  0  0  0  0  0  0  0  0  0  0  0
    1.8567   -1.7718   -0.0022 N   0  0  0  0  0  0  0  0  0  0  0  0
    3.1189   -2.0363    0.3848 C   0  0  0  0  0  0  0  0  0  0  0  0
    3.8062   -0.9668    0.6883 N   0  0  0  0  0  0  0  0  0  0  0  0
    2.9372    0.0657    0.4994 C   0  0  0  0  0  0  0  0  0  0  0  0
    3.2013    1.3550    0.7412 N   0  0  0  0  0  0  0  0  0  0  0  0
    2.1654    2.1367    0.5351 C   0  0  0  0  0  0  0  0  0  0  0  0
    0.9541    1.7979    0.0992 N   0  0  0  0  0  0  0  0  0  0  0  0
    0.6674    0.5257   -0.1770 C   0  0  0  0  0  0  0  0  0  0  0  0
   -0.5789    0.2289   -0.6100 N   0  0  0  0  0  0  0  0  0  0  0  0
   -1.6143    1.2462   -0.6668 C   0  0  0  0  0  0  0  0  0  0  0  0
   -0.9087   -0.9113   -1.4449 C   0  0  0  0  0  0  0  0  0  0  0  0
   -2.2453   -1.4863   -1.0160 C   0  0  0  0  0  0  0  0  0  0  0  0
   -3.2570   -0.5038   -1.0340 O   0  0  0  0  0  0  0  0  0  0  0  0
   -2.9529    0.6432   -0.2548 C   0  0  1  0  0  0  0  0  0  0  0  0
   -3.0193    0.3640    1.2423 C   0  0  0  0  0  0  0  0  0  0  0  0
   -4.3267   -0.1528    1.6111 N   0  0  0  0  0  0  0  0  0  0  0  0
    1.1706   -2.4772   -0.2141 H   0  0  0  0  0  0  0  0  0  0  0  0
    3.4872   -3.0498    0.4300 H   0  0  0  0  0  0  0  0  0  0  0  0
    2.3062    3.1944    0.7329 H   0  0  0  0  0  0  0  0  0  0  0  0
   -1.3587    2.0698   -0.0054 H   0  0  0  0  0  0  0  0  0  0  0  0
   -1.6835    1.6519   -1.6835 H   0  0  0  0  0  0  0  0  0  0  0  0
   -0.9605   -0.5852   -2.4907 H   0  0  0  0  0  0  0  0  0  0  0  0
   -0.1522   -1.6878   -1.4041 H   0  0  0  0  0  0  0  0  0  0  0  0
   -3.7347    1.3699   -0.4930 H   0  0  0  0  0  0  0  0  0  0  0  0
   -2.5474   -2.2703   -1.7114 H   0  0  0  0  0  0  0  0  0  0  0  0
   -2.1437   -1.9449   -0.0246 H   0  0  0  0  0  0  0  0  0  0  0  0
   -2.1824   -0.2771    1.5528 H   0  0  0  0  0  0  0  0  0  0  0  0
   -2.8693    1.3185    1.7528 H   0  0  0  0  0  0  0  0  0  0  0  0
   -4.4381   -1.0920    1.2506 H   0  0  0  0  0  0  0  0  0  0  0  0
   -4.3763   -0.2410    2.6176 H   0  0  0  0  0  0  0  0  0  0  0  0
  1  2  1  0
  1  5  2  0
  1  9  1  0
  2  3  1  0
  3  4  2  0
  4  5  1  0
  5  6  1  0
  6  7  2  0
  7  8  1  0
  8  9  2  0
  9 10  1  0
 10 11  1  0
 10 12  1  0
 11 15  1  0
 12 13  1  0
 13 14  1  0
 14 15  1  0
 15 16  1  0
 16 17  1  0
  2 18  1  0
  3 19  1  0
  7 20  1  0
 11 21  1  0
 11 22  1  0
 12 23  1  0
 12 24  1  0
 15 25  1  1
 13 26  1  0
 13 27  1  0
 16 28  1  0
 16 29  1  0
 17 30  1  0
 17 31  1  0
M  END
