
     RDKit          3D

 60 65  0  0  0  0  0  0  0  0999 V2000
   -2.9295    1.6830   -2.6159 C   0  0  0  0  0  0  0  0  0  0  0  0
   -3.5401    2.2864   -1.3869 C   0  0  0  0  0  0  0  0  0  0  0  0
   -4.1098    3.5565   -1.4144 C   0  0  0  0  0  0  0  0  0  0  0  0
   -4.6833    4.1159   -0.2809 C   0  0  0  0  0  0  0  0  0  0  0  0
   -4.6990    3.4117    0.9141 C   0  0  0  0  0  0  0  0  0  0  0  0
   -4.1361    2.1453    0.9656 C   0  0  0  0  0  0  0  0  0  0  0  0
   -3.5637    1.6012   -0.1727 C   0  0  0  0  0  0  0  0  0  0  0  0
   -2.9709    0.2992   -0.0936 N   0  0  0  0  0  0  0  0  0  0  0  0
   -3.7869   -0.7928   -0.4033 C   0  0  0  0  0  0  0  0  0  0  0  0
   -4.9462   -0.5938   -0.7044 O   0  0  0  0  0  0  0  0  0  0  0  0
   -3.1231   -2.0910   -0.3300 C   0  0  0  0  0  0  0  0  0  0  0  0
   -3.8000   -3.2999   -0.6135 C   0  0  0  0  0  0  0  0  0  0  0  0
   -5.2488   -3.3817   -0.9988 C   0  0  0  0  0  0  0  0  0  0  0  0
   -3.0798   -4.4803   -0.5248 C   0  0  0  0  0  0  0  0  0  0  0  0
   -1.7315   -4.4968   -0.1678 C   0  0  0  0  0  0  0  0  0  0  0  0
   -1.0718   -3.3230    0.1096 C   0  0  0  0  0  0  0  0  0  0  0  0
   -1.7622   -2.1100    0.0307 C   0  0  0  0  0  0  0  0  0  0  0  0
   -1.0557   -0.9669    0.3178 N   0  0  0  0  0  0  0  0  0  0  0  0
   -1.6540    0.1576    0.2509 C   0  0  0  0  0  0  0  0  0  0  0  0
   -0.8858    1.4185    0.5797 C   0  0  0  0  0  0  0  0  0  0  0  0
    0.4941    1.1283    0.8068 N   0  0  0  0  0  0  0  0  0  0  0  0
    1.3492    1.0377   -0.2225 N   0  0  0  0  0  0  0  0  0  0  0  0
    1.0461    0.6814    1.9509 C   0  0  0  0  0  0  0  0  0  0  0  0
    0.4587    0.6121    3.1453 N   0  0  0  0  0  0  0  0  0  0  0  0
    1.2820    0.1664    4.0730 C   0  0  0  0  0  0  0  0  0  0  0  0
    2.5641   -0.1676    3.9494 N   0  0  0  0  0  0  0  0  0  0  0  0
    3.1479   -0.0776    2.7508 C   0  0  0  0  0  0  0  0  0  0  0  0
    4.4433   -0.3811    2.6650 N   0  0  0  0  0  0  0  0  0  0  0  0
    2.3604    0.3273    1.6470 C   0  0  0  0  0  0  0  0  0  0  0  0
    2.4782    0.5689    0.2486 C   0  0  0  0  0  0  0  0  0  0  0  0
    3.6272    0.3616   -0.6397 C   0  0  0  0  0  0  0  0  0  0  0  0
    4.3392   -0.8336   -0.5768 C   0  0  0  0  0  0  0  0  0  0  0  0
    3.9804    1.3479   -1.5557 C   0  0  0  0  0  0  0  0  0  0  0  0
    5.0600    1.1021   -2.3808 C   0  0  0  0  0  0  0  0  0  0  0  0
    5.4193    2.0453   -3.2628 F   0  0  0  0  0  0  0  0  0  0  0  0
    5.7956   -0.0635   -2.3412 C   0  0  0  0  0  0  0  0  0  0  0  0
    5.4235   -1.0455   -1.4257 C   0  0  0  0  0  0  0  0  0  0  0  0
    6.1399   -2.1795   -1.4126 O   0  0  0  0  0  0  0  0  0  0  0  0
   -1.8885    1.3916   -2.4624 H   0  0  0  0  0  0  0  0  0  0  0  0
   -3.4700    0.7895   -2.9317 H   0  0  0  0  0  0  0  0  0  0  0  0
   -2.9503    2.3906   -3.4426 H   0  0  0  0  0  0  0  0  0  0  0  0
   -4.1057    4.1156   -2.3420 H   0  0  0  0  0  0  0  0  0  0  0  0
   -5.1192    5.1050   -0.3341 H   0  0  0  0  0  0  0  0  0  0  0  0
   -5.1454    3.8414    1.8005 H   0  0  0  0  0  0  0  0  0  0  0  0
   -4.1375    1.5785    1.8883 H   0  0  0  0  0  0  0  0  0  0  0  0
   -5.4630   -2.8344   -1.9157 H   0  0  0  0  0  0  0  0  0  0  0  0
   -5.5259   -4.4227   -1.1577 H   0  0  0  0  0  0  0  0  0  0  0  0
   -5.8992   -2.9750   -0.2257 H   0  0  0  0  0  0  0  0  0  0  0  0
   -3.5790   -5.4169   -0.7384 H   0  0  0  0  0  0  0  0  0  0  0  0
   -1.2061   -5.4410   -0.1075 H   0  0  0  0  0  0  0  0  0  0  0  0
   -0.0268   -3.3100    0.3890 H   0  0  0  0  0  0  0  0  0  0  0  0
   -0.9616    2.1517   -0.2242 H   0  0  0  0  0  0  0  0  0  0  0  0
   -1.2987    1.8874    1.4748 H   0  0  0  0  0  0  0  0  0  0  0  0
    0.8703    0.0655    5.0717 H   0  0  0  0  0  0  0  0  0  0  0  0
    4.9550   -0.5754    3.5098 H   0  0  0  0  0  0  0  0  0  0  0  0
    4.9778   -0.1892    1.8356 H   0  0  0  0  0  0  0  0  0  0  0  0
    4.0267   -1.6169    0.1048 H   0  0  0  0  0  0  0  0  0  0  0  0
    3.4419    2.2841   -1.6082 H   0  0  0  0  0  0  0  0  0  0  0  0
    6.6363   -0.2116   -3.0069 H   0  0  0  0  0  0  0  0  0  0  0  0
    5.7907   -2.7947   -0.7576 H   0  0  0  0  0  0  0  0  0  0  0  0
  1  2  1  0
  2  3  2  0
  2  7  1  0
  3  4  1  0
  4  5  2  0
  5  6  1  0
  6  7  2  0
  7  8  1  0
  8  9  1  0
  8 19  1  0
  9 10  2  0
  9 11  1  0
 11 12  2  0
 11 17  1  0
 12 13  1  0
 12 14  1  0
 14 15  2  0
 15 16  1  0
 16 17  2  0
 17 18  1  0
 18 19  2  0
 19 20  1  0
 20 21  1  0
 21 22  1  0
 21 23  1  0
 22 30  2  0
 23 24  2  0
 23 29  1  0
 24 25  1  0
 25 26  2  0
 26 27  1  0
 27 28  1  0
 27 29  2  0
 29 30  1  0
 30 31  1  0
 31 32  2  0
 31 33  1  0
 32 37  1  0
 33 34  2  0
 34 35  1  0
 34 36  1  0
 36 37  2  0
 37 38  1  0
  1 39  1  0
  1 40  1  0
  1 41  1  0
  3 42  1  0
  4 43  1  0
  5 44  1  0
  6 45  1  0
 13 46  1  0
 13 47  1  0
 13 48  1  0
 14 49  1  0
 15 50  1  0
 16 51  1  0
 20 52  1  0
 20 53  1  0
 25 54  1  0
 28 55  1  0
 28 56  1  0
 32 57  1  0
 33 58  1  0
 36 59  1  0
 38 60  1  0
M  END
