
     RDKit          3D

 36 37  0  0  0  0  0  0  0  0999 V2000
   -4.5235    0.4869   -1.2068 C   0  0  0  0  0  0  0  0  0  0  0  0
   -4.1928   -0.5397   -0.1242 C   0  0  1  0  0  0  0  0  0  0  0  0
   -4.5390   -0.0041    1.2643 C   0  0  0  0  0  0  0  0  0  0  0  0
   -4.9783   -1.8234   -0.3831 C   0  0  0  0  0  0  0  0  0  0  0  0
   -2.7718   -0.9243   -0.1883 N   0  0  0  0  0  0  0  0  0  0  0  0
   -1.7245   -0.1209   -0.0479 C   0  0  0  0  0  0  0  0  0  0  0  0
   -0.1109   -0.7850   -0.1325 S   0  0  0  0  0  0  0  0  0  0  0  0
   -1.7914    1.1710    0.1571 N   0  0  0  0  0  0  0  0  0  0  0  0
   -0.5593    1.7182    0.2496 C   0  0  0  0  0  0  0  0  0  0  0  0
   -0.4520    3.0308    0.4394 N   0  0  0  0  0  0  0  0  0  0  0  0
    0.5287    0.8342    0.1376 C   0  0  0  0  0  0  0  0  0  0  0  0
    1.8981    1.1929    0.1479 C   0  0  0  0  0  0  0  0  0  0  0  0
    2.2778    2.3704    0.2077 O   0  0  0  0  0  0  0  0  0  0  0  0
    2.9240    0.1086    0.0623 C   0  0  0  0  0  0  0  0  0  0  0  0
    3.9849    0.2478   -0.8312 C   0  0  0  0  0  0  0  0  0  0  0  0
    4.9650   -0.7295   -0.9115 C   0  0  0  0  0  0  0  0  0  0  0  0
    4.9117   -1.8412   -0.0787 C   0  0  0  0  0  0  0  0  0  0  0  0
    3.8729   -1.9722    0.8323 C   0  0  0  0  0  0  0  0  0  0  0  0
    2.8791   -1.0045    0.8987 C   0  0  0  0  0  0  0  0  0  0  0  0
   -3.9983    1.4265   -1.0448 H   0  0  0  0  0  0  0  0  0  0  0  0
   -4.2581    0.1080   -2.1950 H   0  0  0  0  0  0  0  0  0  0  0  0
   -5.5947    0.6917   -1.2012 H   0  0  0  0  0  0  0  0  0  0  0  0
   -5.6010    0.2409    1.3109 H   0  0  0  0  0  0  0  0  0  0  0  0
   -4.3347   -0.7542    2.0300 H   0  0  0  0  0  0  0  0  0  0  0  0
   -3.9760    0.8962    1.5046 H   0  0  0  0  0  0  0  0  0  0  0  0
   -4.7411   -2.2440   -1.3622 H   0  0  0  0  0  0  0  0  0  0  0  0
   -4.7666   -2.5779    0.3774 H   0  0  0  0  0  0  0  0  0  0  0  0
   -6.0475   -1.6166   -0.3562 H   0  0  0  0  0  0  0  0  0  0  0  0
   -1.2776    3.5960    0.5314 H   0  0  0  0  0  0  0  0  0  0  0  0
    0.4585    3.4547    0.4950 H   0  0  0  0  0  0  0  0  0  0  0  0
    4.0348    1.1162   -1.4758 H   0  0  0  0  0  0  0  0  0  0  0  0
    2.0860   -1.1088    1.6290 H   0  0  0  0  0  0  0  0  0  0  0  0
    5.7749   -0.6221   -1.6212 H   0  0  0  0  0  0  0  0  0  0  0  0
    5.6814   -2.5995   -0.1370 H   0  0  0  0  0  0  0  0  0  0  0  0
    3.8364   -2.8258    1.4962 H   0  0  0  0  0  0  0  0  0  0  0  0
   -2.5826   -1.9041   -0.3301 H   0  0  0  0  0  0  0  0  0  0  0  0
  1  2  1  0
  2  3  1  0
  2  4  1  0
  2  5  1  1
  5  6  1  0
  6  7  1  0
  6  8  2  0
  7 11  1  0
  8  9  1  0
  9 10  1  0
  9 11  2  0
 11 12  1  0
 12 13  2  0
 12 14  1  0
 14 15  2  0
 14 19  1  0
 15 16  1  0
 16 17  2  0
 17 18  1  0
 18 19  2  0
  1 20  1  0
  1 21  1  0
  1 22  1  0
  3 23  1  0
  3 24  1  0
  3 25  1  0
  4 26  1  0
  4 27  1  0
  4 28  1  0
 10 29  1  0
 10 30  1  0
 15 31  1  0
 19 32  1  0
 16 33  1  0
 17 34  1  0
 18 35  1  0
  5 36  1  0
M  END
