
     RDKit          3D

 18 18  0  0  0  0  0  0  0  0999 V2000
   -1.4110    2.5774   -0.0527 N   0  0  0  0  0  0  0  0  0  0  0  0
   -1.0582    1.2933   -0.0355 C   0  0  0  0  0  0  0  0  0  0  0  0
    0.2511    1.0098   -0.0390 N   0  0  0  0  0  0  0  0  0  0  0  0
   -2.0341    0.3790   -0.0134 N   0  0  0  0  0  0  0  0  0  0  0  0
   -1.6273   -0.8786    0.0118 C   0  0  0  0  0  0  0  0  0  0  0  0
   -2.6689   -1.9440    0.0086 C   0  0  0  0  0  0  0  0  0  0  0  0
   -0.3579   -1.2712    0.0173 N   0  0  0  0  0  0  0  0  0  0  0  0
    0.5243   -0.2756   -0.0121 C   0  0  0  0  0  0  0  0  0  0  0  0
    2.1845   -0.8088   -0.0062 S   0  0  0  0  0  0  0  0  0  0  0  0
    3.0812    0.7542    0.0186 C   0  0  0  0  0  0  0  0  0  0  0  0
   -0.7173    3.3010   -0.0703 H   0  0  0  0  0  0  0  0  0  0  0  0
   -2.3785    2.8414   -0.0510 H   0  0  0  0  0  0  0  0  0  0  0  0
    2.8653    1.3515   -0.8631 H   0  0  0  0  0  0  0  0  0  0  0  0
    2.8510    1.3286    0.9121 H   0  0  0  0  0  0  0  0  0  0  0  0
    4.1383    0.4956    0.0248 H   0  0  0  0  0  0  0  0  0  0  0  0
   -2.9044   -2.2182   -1.0219 H   0  0  0  0  0  0  0  0  0  0  0  0
   -2.3154   -2.8401    0.5128 H   0  0  0  0  0  0  0  0  0  0  0  0
   -3.5880   -1.5990    0.4751 H   0  0  0  0  0  0  0  0  0  0  0  0
  1  2  1  0
  2  3  2  0
  2  4  1  0
  3  8  1  0
  4  5  2  0
  5  6  1  0
  5  7  1  0
  7  8  2  0
  8  9  1  0
  9 10  1  0
  1 11  1  0
  1 12  1  0
 10 13  1  0
 10 14  1  0
 10 15  1  0
  6 16  1  0
  6 17  1  0
  6 18  1  0
M  END
