
     RDKit          3D

 39 41  0  0  0  0  0  0  0  0999 V2000
   -4.3552   -1.3587    1.2559 F   0  0  0  0  0  0  0  0  0  0  0  0
   -3.0539   -1.6113    1.3535 C   0  0  1  0  0  0  0  0  0  0  0  0
   -2.7615   -1.7423    2.6523 F   0  0  0  0  0  0  0  0  0  0  0  0
   -2.8290   -2.7986    0.7787 F   0  0  0  0  0  0  0  0  0  0  0  0
   -2.2058   -0.5326    0.7181 C   0  0  0  0  0  0  0  0  0  0  0  0
   -2.8204    0.4551    0.1509 N   0  0  0  0  0  0  0  0  0  0  0  0
   -2.0088    1.4397   -0.3246 C   0  0  0  0  0  0  0  0  0  0  0  0
   -2.6074    2.6027   -0.8450 C   0  0  0  0  0  0  0  0  0  0  0  0
   -1.8339    3.6725   -1.2142 C   0  0  0  0  0  0  0  0  0  0  0  0
   -0.4406    3.6250   -1.0522 C   0  0  0  0  0  0  0  0  0  0  0  0
    0.1640    2.4872   -0.5795 C   0  0  0  0  0  0  0  0  0  0  0  0
   -0.5997    1.3494   -0.2537 C   0  0  0  0  0  0  0  0  0  0  0  0
   -0.0708    0.0983    0.2460 C   0  0  0  0  0  0  0  0  0  0  0  0
   -0.9010   -0.7739    0.7962 N   0  0  0  0  0  0  0  0  0  0  0  0
    1.2380   -0.2197    0.2110 N   0  0  0  0  0  0  0  0  0  0  0  0
    1.7370   -1.3097    1.0383 C   0  0  0  0  0  0  0  0  0  0  0  0
    3.1331   -1.0566    1.6063 C   0  0  0  0  0  0  0  0  0  0  0  0
    4.2806   -1.0967    0.6034 C   0  0  0  0  0  0  0  0  0  0  0  0
    4.5295    0.1482   -0.1088 N   0  0  0  0  0  0  0  0  0  0  0  0
    5.3613   -0.0926   -1.2666 C   0  0  0  0  0  0  0  0  0  0  0  0
    3.3534    0.9442   -0.4013 C   0  0  0  0  0  0  0  0  0  0  0  0
    2.1199    0.1691   -0.8827 C   0  0  0  0  0  0  0  0  0  0  0  0
   -3.6865    2.6386   -0.9167 H   0  0  0  0  0  0  0  0  0  0  0  0
   -2.2990    4.5683   -1.6035 H   0  0  0  0  0  0  0  0  0  0  0  0
    0.1602    4.4918   -1.2917 H   0  0  0  0  0  0  0  0  0  0  0  0
    1.2330    2.4978   -0.4290 H   0  0  0  0  0  0  0  0  0  0  0  0
    1.0461   -1.4529    1.8642 H   0  0  0  0  0  0  0  0  0  0  0  0
    1.7451   -2.2423    0.4615 H   0  0  0  0  0  0  0  0  0  0  0  0
    2.4317   -0.7462   -1.3992 H   0  0  0  0  0  0  0  0  0  0  0  0
    1.5581    0.7363   -1.6194 H   0  0  0  0  0  0  0  0  0  0  0  0
    3.1492   -0.1323    2.1897 H   0  0  0  0  0  0  0  0  0  0  0  0
    3.3049   -1.8648    2.3203 H   0  0  0  0  0  0  0  0  0  0  0  0
    5.2010   -1.3680    1.1292 H   0  0  0  0  0  0  0  0  0  0  0  0
    4.0862   -1.9287   -0.0953 H   0  0  0  0  0  0  0  0  0  0  0  0
    4.8831   -0.7182   -2.0371 H   0  0  0  0  0  0  0  0  0  0  0  0
    5.6507    0.8510   -1.7305 H   0  0  0  0  0  0  0  0  0  0  0  0
    6.2766   -0.6036   -0.9612 H   0  0  0  0  0  0  0  0  0  0  0  0
    3.0686    1.5181    0.4867 H   0  0  0  0  0  0  0  0  0  0  0  0
    3.6302    1.6802   -1.1588 H   0  0  0  0  0  0  0  0  0  0  0  0
  2  1  1  1
  2  3  1  0
  2  4  1  0
  2  5  1  0
  5  6  2  0
  5 14  1  0
  6  7  1  0
  7  8  2  0
  7 12  1  0
  8  9  1  0
  9 10  2  0
 10 11  1  0
 11 12  2  0
 12 13  1  0
 13 14  2  0
 13 15  1  0
 15 16  1  0
 15 22  1  0
 16 17  1  0
 17 18  1  0
 18 19  1  0
 19 20  1  0
 19 21  1  0
 21 22  1  0
  8 23  1  0
  9 24  1  0
 10 25  1  0
 11 26  1  0
 16 27  1  0
 16 28  1  0
 22 29  1  0
 22 30  1  0
 17 31  1  0
 17 32  1  0
 18 33  1  0
 18 34  1  0
 20 35  1  0
 20 36  1  0
 20 37  1  0
 21 38  1  0
 21 39  1  0
M  END
