
     RDKit          3D

 40 42  0  0  0  0  0  0  0  0999 V2000
   -0.1973    0.0393    0.0489 C   0  0  0  0  0  0  0  0  0  0  0  0
   -1.6455   -0.0074    0.2416 C   0  0  0  0  0  0  0  0  0  0  0  0
   -2.4262   -0.9154   -0.5031 C   0  0  0  0  0  0  0  0  0  0  0  0
   -1.7613   -1.6492   -1.4096 O   0  0  0  0  0  0  0  0  0  0  0  0
   -2.4673   -2.6148   -2.1647 C   0  0  0  0  0  0  0  0  0  0  0  0
   -3.7959   -1.0130   -0.2993 C   0  0  0  0  0  0  0  0  0  0  0  0
   -2.2978    0.7658    1.1982 C   0  0  0  0  0  0  0  0  0  0  0  0
   -3.6633    0.6812    1.4172 C   0  0  0  0  0  0  0  0  0  0  0  0
   -4.4138   -0.2110    0.6595 C   0  0  0  0  0  0  0  0  0  0  0  0
   -5.7426   -0.3537    0.8090 O   0  0  0  0  0  0  0  0  0  0  0  0
    0.5784    1.1377    0.0397 C   0  0  0  0  0  0  0  0  0  0  0  0
    0.0737    2.5506    0.0605 C   0  0  0  0  0  0  0  0  0  0  0  0
    0.8349    3.3543   -0.9874 C   0  0  0  0  0  0  0  0  0  0  0  0
    2.3263    3.2751   -0.7185 C   0  0  0  0  0  0  0  0  0  0  0  0
    2.8371    1.9581   -0.4119 N   0  0  0  0  0  0  0  0  0  0  0  0
    2.0461    1.0115   -0.0931 C   0  0  0  0  0  0  0  0  0  0  0  0
    2.6956   -0.2973    0.1836 C   0  0  0  0  0  0  0  0  0  0  0  0
    3.6258   -0.8120   -0.7163 C   0  0  0  0  0  0  0  0  0  0  0  0
    4.2880   -1.9449   -0.5281 N   0  0  0  0  0  0  0  0  0  0  0  0
    4.0596   -2.6205    0.5927 C   0  0  0  0  0  0  0  0  0  0  0  0
    3.1629   -2.1978    1.5620 C   0  0  0  0  0  0  0  0  0  0  0  0
    2.4654   -1.0196    1.3503 C   0  0  0  0  0  0  0  0  0  0  0  0
    0.2816   -0.9218   -0.1032 H   0  0  0  0  0  0  0  0  0  0  0  0
   -1.7151    1.4341    1.8187 H   0  0  0  0  0  0  0  0  0  0  0  0
   -4.4078   -1.6989   -0.8697 H   0  0  0  0  0  0  0  0  0  0  0  0
   -3.2386   -2.1575   -2.7891 H   0  0  0  0  0  0  0  0  0  0  0  0
   -1.7356   -3.0968   -2.8079 H   0  0  0  0  0  0  0  0  0  0  0  0
   -2.9299   -3.3721   -1.5269 H   0  0  0  0  0  0  0  0  0  0  0  0
   -4.1307    1.2925    2.1800 H   0  0  0  0  0  0  0  0  0  0  0  0
   -6.0680    0.2353    1.4990 H   0  0  0  0  0  0  0  0  0  0  0  0
   -0.9979    2.5857   -0.1350 H   0  0  0  0  0  0  0  0  0  0  0  0
    0.2301    2.9953    1.0493 H   0  0  0  0  0  0  0  0  0  0  0  0
    0.6113    2.9549   -1.9805 H   0  0  0  0  0  0  0  0  0  0  0  0
    0.5128    4.3970   -0.9846 H   0  0  0  0  0  0  0  0  0  0  0  0
    2.8931    3.6575   -1.5711 H   0  0  0  0  0  0  0  0  0  0  0  0
    2.5931    3.9259    0.1223 H   0  0  0  0  0  0  0  0  0  0  0  0
    3.8314   -0.2774   -1.6377 H   0  0  0  0  0  0  0  0  0  0  0  0
    1.7620   -0.6613    2.0913 H   0  0  0  0  0  0  0  0  0  0  0  0
    4.6159   -3.5415    0.7269 H   0  0  0  0  0  0  0  0  0  0  0  0
    3.0183   -2.7788    2.4622 H   0  0  0  0  0  0  0  0  0  0  0  0
  1  2  1  0
  1 11  2  0
  2  3  2  0
  2  7  1  0
  3  4  1  0
  3  6  1  0
  4  5  1  0
  6  9  2  0
  7  8  2  0
  8  9  1  0
  9 10  1  0
 11 12  1  0
 11 16  1  0
 12 13  1  0
 13 14  1  0
 14 15  1  0
 15 16  2  0
 16 17  1  0
 17 18  2  0
 17 22  1  0
 18 19  1  0
 19 20  2  0
 20 21  1  0
 21 22  2  0
  1 23  1  0
  7 24  1  0
  6 25  1  0
  5 26  1  0
  5 27  1  0
  5 28  1  0
  8 29  1  0
 10 30  1  0
 12 31  1  0
 12 32  1  0
 13 33  1  0
 13 34  1  0
 14 35  1  0
 14 36  1  0
 18 37  1  0
 22 38  1  0
 20 39  1  0
 21 40  1  0
M  END
