
     RDKit          3D

 58 62  0  0  0  0  0  0  0  0999 V2000
   -0.6860   -0.8361   -0.1569 N   0  0  0  0  0  0  0  0  0  0  0  0
   -0.8209    0.4817   -0.2405 C   0  0  0  0  0  0  0  0  0  0  0  0
   -1.9781    1.1277   -0.4184 N   0  0  0  0  0  0  0  0  0  0  0  0
   -3.0641    0.4101   -0.5980 C   0  0  0  0  0  0  0  0  0  0  0  0
   -3.0161   -0.9900   -0.6517 C   0  0  0  0  0  0  0  0  0  0  0  0
   -1.7826   -1.5484   -0.3771 C   0  0  0  0  0  0  0  0  0  0  0  0
   -5.3460   -1.7114   -0.6381 C   0  0  0  0  0  0  0  0  0  0  0  0
   -5.7013   -0.6309    0.3246 C   0  0  0  0  0  0  0  0  0  0  0  0
   -5.2662    0.6957    0.2113 C   0  0  0  0  0  0  0  0  0  0  0  0
   -4.2780    1.0690   -0.7267 N   0  0  0  0  0  0  0  0  0  0  0  0
   -4.2214    2.4627   -1.1375 C   0  0  0  0  0  0  0  0  0  0  0  0
   -6.7645    1.3143    2.0064 C   0  0  0  0  0  0  0  0  0  0  0  0
   -7.1716   -0.0052    2.1449 C   0  0  0  0  0  0  0  0  0  0  0  0
   -6.6502   -0.9602    1.2931 C   0  0  0  0  0  0  0  0  0  0  0  0
   -5.8224    1.6607    1.0535 C   0  0  0  0  0  0  0  0  0  0  0  0
    0.2674    1.2845   -0.1319 N   0  0  0  0  0  0  0  0  0  0  0  0
    1.6172    0.9339   -0.0172 C   0  0  0  0  0  0  0  0  0  0  0  0
    2.5613    1.7912   -0.5883 C   0  0  0  0  0  0  0  0  0  0  0  0
    3.9138    1.5405   -0.4767 C   0  0  0  0  0  0  0  0  0  0  0  0
    4.3911    0.4064    0.1920 C   0  0  0  0  0  0  0  0  0  0  0  0
    5.7725    0.1893    0.2857 N   0  0  0  0  0  0  0  0  0  0  0  0
    6.4793    0.0809   -0.9865 C   0  0  0  0  0  0  0  0  0  0  0  0
    7.9798    0.2378   -0.7994 C   0  0  0  0  0  0  0  0  0  0  0  0
    8.5008   -0.7799    0.1989 C   0  0  1  0  0  0  0  0  0  0  0  0
    9.8844   -0.5620    0.3787 O   0  0  0  0  0  0  0  0  0  0  0  0
    7.7167   -0.6527    1.4975 C   0  0  0  0  0  0  0  0  0  0  0  0
    6.2223   -0.7975    1.2481 C   0  0  0  0  0  0  0  0  0  0  0  0
    3.4411   -0.4427    0.7618 C   0  0  0  0  0  0  0  0  0  0  0  0
    2.0789   -0.1807    0.6743 C   0  0  0  0  0  0  0  0  0  0  0  0
   -4.0851   -1.7715   -1.1255 N   0  0  0  0  0  0  0  0  0  0  0  0
   -3.7881   -2.7942   -2.1218 C   0  0  0  0  0  0  0  0  0  0  0  0
   -1.6644   -2.6274   -0.3644 H   0  0  0  0  0  0  0  0  0  0  0  0
   -3.8262    3.1342   -0.3730 H   0  0  0  0  0  0  0  0  0  0  0  0
   -3.5882    2.5443   -2.0174 H   0  0  0  0  0  0  0  0  0  0  0  0
   -5.2243    2.7854   -1.4082 H   0  0  0  0  0  0  0  0  0  0  0  0
   -7.1702    2.0816    2.6526 H   0  0  0  0  0  0  0  0  0  0  0  0
   -7.8990   -0.2818    2.8959 H   0  0  0  0  0  0  0  0  0  0  0  0
   -6.9885   -1.9849    1.3680 H   0  0  0  0  0  0  0  0  0  0  0  0
   -5.5104    2.6929    0.9807 H   0  0  0  0  0  0  0  0  0  0  0  0
    0.0764    2.2586   -0.3092 H   0  0  0  0  0  0  0  0  0  0  0  0
    2.2313    2.6779   -1.1168 H   0  0  0  0  0  0  0  0  0  0  0  0
    4.6115    2.2456   -0.9112 H   0  0  0  0  0  0  0  0  0  0  0  0
    6.2658   -0.8908   -1.4595 H   0  0  0  0  0  0  0  0  0  0  0  0
    6.1194    0.8472   -1.6711 H   0  0  0  0  0  0  0  0  0  0  0  0
    8.4733    0.1158   -1.7665 H   0  0  0  0  0  0  0  0  0  0  0  0
    8.1975    1.2479   -0.4392 H   0  0  0  0  0  0  0  0  0  0  0  0
    8.3221   -1.7868   -0.2118 H   0  0  0  0  0  0  0  0  0  0  0  0
   10.2089   -1.2078    1.0141 H   0  0  0  0  0  0  0  0  0  0  0  0
    8.0310   -1.4164    2.2148 H   0  0  0  0  0  0  0  0  0  0  0  0
    7.9184    0.3247    1.9461 H   0  0  0  0  0  0  0  0  0  0  0  0
    5.6869   -0.6498    2.1870 H   0  0  0  0  0  0  0  0  0  0  0  0
    6.0056   -1.8248    0.9126 H   0  0  0  0  0  0  0  0  0  0  0  0
    3.7476   -1.3361    1.2893 H   0  0  0  0  0  0  0  0  0  0  0  0
    1.3855   -0.8642    1.1396 H   0  0  0  0  0  0  0  0  0  0  0  0
   -3.6647   -3.7795   -1.6713 H   0  0  0  0  0  0  0  0  0  0  0  0
   -4.5878   -2.8485   -2.8566 H   0  0  0  0  0  0  0  0  0  0  0  0
   -2.8686   -2.5266   -2.6348 H   0  0  0  0  0  0  0  0  0  0  0  0
   -6.1927   -2.5241   -0.9776 O   0  0  0  0  0  0  0  0  0  0  0  0
  2  1  2  0
  1  6  1  0
 16  2  1  0
  3  2  1  0
  3  4  2  0
 10  4  1  0
  4  5  1  0
  5  6  2  0
  5 30  1  0
  6 32  1  0
  7 58  2  0
  8  7  1  0
  7 30  1  0
  9  8  2  0
 14  8  1  0
 15  9  1  0
  9 10  1  0
 11 10  1  0
 11 33  1  0
 11 34  1  0
 11 35  1  0
 12 15  2  0
 12 13  1  0
 12 36  1  0
 13 14  2  0
 13 37  1  0
 14 38  1  0
 15 39  1  0
 17 16  1  0
 16 40  1  0
 18 17  2  0
 29 17  1  0
 19 18  1  0
 18 41  1  0
 20 19  2  0
 19 42  1  0
 21 20  1  0
 20 28  1  0
 22 21  1  0
 21 27  1  0
 23 22  1  0
 22 43  1  0
 22 44  1  0
 23 24  1  0
 23 45  1  0
 23 46  1  0
 25 24  1  0
 24 26  1  0
 24 47  1  6
 25 48  1  0
 26 27  1  0
 26 49  1  0
 26 50  1  0
 27 51  1  0
 27 52  1  0
 28 29  2  0
 28 53  1  0
 29 54  1  0
 30 31  1  0
 31 55  1  0
 31 56  1  0
 31 57  1  0
M  END
