
     RDKit          3D

 17 17  0  0  0  0  0  0  0  0999 V2000
    4.3359    0.2917   -0.2303 C   0  0  0  0  0  0  0  0  0  0  0  0
    2.8333    0.1651   -0.1936 C   0  0  0  0  0  0  0  0  0  0  0  0
    2.2018   -1.0227    0.1585 C   0  0  0  0  0  0  0  0  0  0  0  0
    0.8159   -1.1269    0.1602 C   0  0  0  0  0  0  0  0  0  0  0  0
    0.0524   -0.0276   -0.1992 C   0  0  0  0  0  0  0  0  0  0  0  0
    0.6560    1.1709   -0.5536 C   0  0  0  0  0  0  0  0  0  0  0  0
    2.0402    1.2559   -0.5428 C   0  0  0  0  0  0  0  0  0  0  0  0
   -2.0483   -0.1725   -0.1979 I   0  0  0  0  0  0  0  0  0  0  0  0
    5.0029   -0.7328    0.5488 N   0  0  0  0  0  0  0  0  0  0  0  0
    4.6600    0.1867   -1.2702 H   0  0  0  0  0  0  0  0  0  0  0  0
    4.6018    1.3172    0.0598 H   0  0  0  0  0  0  0  0  0  0  0  0
    2.7954   -1.8818    0.4409 H   0  0  0  0  0  0  0  0  0  0  0  0
    0.3521   -2.0624    0.4425 H   0  0  0  0  0  0  0  0  0  0  0  0
    0.0686    2.0358   -0.8310 H   0  0  0  0  0  0  0  0  0  0  0  0
    2.5068    2.1962   -0.8129 H   0  0  0  0  0  0  0  0  0  0  0  0
    5.9993   -0.6793    0.3839 H   0  0  0  0  0  0  0  0  0  0  0  0
    4.8724   -0.5513    1.5362 H   0  0  0  0  0  0  0  0  0  0  0  0
  4  3  1  0
  4  5  2  0
  3  2  2  0
  8  5  1  0
  9  1  1  0
  5  6  1  0
  2  1  1  0
  2  7  1  0
  6  7  2  0
  1 10  1  0
  1 11  1  0
  3 12  1  0
  4 13  1  0
  6 14  1  0
  7 15  1  0
  9 16  1  0
  9 17  1  0
M  END
