
     RDKit          3D

 22 24  0  0  0  0  0  0  0  0999 V2000
   -1.0066    3.0457   -0.0164 C   0  0  0  0  0  0  0  0  0  0  0  0
   -0.8024    1.6175    0.0010 N   0  0  0  0  0  0  0  0  0  0  0  0
    0.4116    1.0376   -0.0051 C   0  0  0  0  0  0  0  0  0  0  0  0
    2.7578   -0.4754    0.0108 N   0  0  0  0  0  0  0  0  0  0  0  0
    0.3851   -0.3372   -0.0074 C   0  0  0  0  0  0  0  0  0  0  0  0
    1.5987    1.6530   -0.0023 N   0  0  0  0  0  0  0  0  0  0  0  0
    1.5486   -1.0635    0.0077 C   0  0  0  0  0  0  0  0  0  0  0  0
    1.1545   -2.3647    0.0233 N   0  0  0  0  0  0  0  0  0  0  0  0
    2.6749    0.8481    0.0041 C   0  0  0  0  0  0  0  0  0  0  0  0
   -1.9656    0.8826   -0.0260 N   0  0  0  0  0  0  0  0  0  0  0  0
   -0.2295   -2.4510    0.0236 C   0  0  0  0  0  0  0  0  0  0  0  0
   -0.7346   -1.1736    0.0028 C   0  0  0  0  0  0  0  0  0  0  0  0
   -1.9707   -0.4158   -0.0074 C   0  0  0  0  0  0  0  0  0  0  0  0
   -1.4695    3.3593   -0.9524 H   0  0  0  0  0  0  0  0  0  0  0  0
   -1.6485    3.3441    0.8114 H   0  0  0  0  0  0  0  0  0  0  0  0
   -0.0470    3.5433    0.0858 H   0  0  0  0  0  0  0  0  0  0  0  0
    1.7669   -3.1656    0.0387 H   0  0  0  0  0  0  0  0  0  0  0  0
    3.6260    1.3710    0.0051 H   0  0  0  0  0  0  0  0  0  0  0  0
   -0.7107   -3.4147    0.0388 H   0  0  0  0  0  0  0  0  0  0  0  0
   -3.9856   -0.5143   -0.1498 H   0  0  0  0  0  0  0  0  0  0  0  0
   -3.1965   -1.9896   -0.3451 H   0  0  0  0  0  0  0  0  0  0  0  0
   -3.1661   -1.0653    0.0536 N   0  0  0  0  0  0  0  0  0  0  0  0
  1  2  1  0
  2  3  1  0
  2 10  1  0
  3  5  2  0
  3  6  1  0
  4  7  2  0
  4  9  1  0
  5  7  1  0
  5 12  1  0
  6  9  2  0
  7  8  1  0
  8 11  1  0
 10 13  2  0
 11 12  2  0
 22 13  1  0
 12 13  1  0
  1 14  1  0
  1 15  1  0
  1 16  1  0
  8 17  1  0
  9 18  1  0
 11 19  1  0
 22 20  1  0
 22 21  1  0
M  END
