
     RDKit          3D

 33 34  0  0  0  0  0  0  0  0999 V2000
   -2.8499    0.2429   -1.1449 C   0  0  0  0  0  0  0  0  0  0  0  0
   -4.0613    0.8736   -0.8947 C   0  0  0  0  0  0  0  0  0  0  0  0
   -4.6910    0.7129    0.3329 C   0  0  0  0  0  0  0  0  0  0  0  0
   -4.1009   -0.0858    1.3041 C   0  0  0  0  0  0  0  0  0  0  0  0
   -2.8914   -0.7173    1.0457 C   0  0  0  0  0  0  0  0  0  0  0  0
   -2.2479   -0.5612   -0.1806 C   0  0  0  0  0  0  0  0  0  0  0  0
   -0.9239   -1.2228   -0.4370 C   0  0  0  0  0  0  0  0  0  0  0  0
    0.2461   -0.4253    0.1439 C   0  0  2  0  0  0  0  0  0  0  0  0
    0.3209    0.8844   -0.4774 N   0  0  0  0  0  0  0  0  0  0  0  0
    1.4051    1.6852    0.0561 C   0  0  0  0  0  0  0  0  0  0  0  0
    2.7668    0.9931   -0.0267 C   0  0  1  0  0  0  0  0  0  0  0  0
    3.7816    1.7323    0.6252 O   0  0  0  0  0  0  0  0  0  0  0  0
    2.6910   -0.3650    0.6558 C   0  0  2  0  0  0  0  0  0  0  0  0
    3.8891   -1.0968    0.5176 O   0  0  0  0  0  0  0  0  0  0  0  0
    1.5611   -1.2064    0.0653 C   0  0  2  0  0  0  0  0  0  0  0  0
    1.8118   -1.5327   -1.2825 O   0  0  0  0  0  0  0  0  0  0  0  0
   -2.3688    0.3729   -2.1072 H   0  0  0  0  0  0  0  0  0  0  0  0
   -4.5138    1.4930   -1.6587 H   0  0  0  0  0  0  0  0  0  0  0  0
   -5.6364    1.2020    0.5297 H   0  0  0  0  0  0  0  0  0  0  0  0
   -4.5840   -0.2201    2.2637 H   0  0  0  0  0  0  0  0  0  0  0  0
   -2.4402   -1.3428    1.8080 H   0  0  0  0  0  0  0  0  0  0  0  0
   -0.9162   -2.2222    0.0051 H   0  0  0  0  0  0  0  0  0  0  0  0
   -0.7771   -1.3557   -1.5117 H   0  0  0  0  0  0  0  0  0  0  0  0
    0.0485   -0.2673    1.2124 H   0  0  0  0  0  0  0  0  0  0  0  0
    0.4293    0.7804   -1.4799 H   0  0  0  0  0  0  0  0  0  0  0  0
    1.4400    2.6382   -0.4778 H   0  0  0  0  0  0  0  0  0  0  0  0
    1.1865    1.9159    1.1050 H   0  0  0  0  0  0  0  0  0  0  0  0
    3.0216    0.8411   -1.0845 H   0  0  0  0  0  0  0  0  0  0  0  0
    4.0385    2.4656    0.0585 H   0  0  0  0  0  0  0  0  0  0  0  0
    2.4593   -0.1985    1.7211 H   0  0  0  0  0  0  0  0  0  0  0  0
    4.6251   -0.5010    0.6953 H   0  0  0  0  0  0  0  0  0  0  0  0
    1.4603   -2.1184    0.6751 H   0  0  0  0  0  0  0  0  0  0  0  0
    2.7081   -1.8809   -1.3415 H   0  0  0  0  0  0  0  0  0  0  0  0
  1  2  2  0
  1  6  1  0
  2  3  1  0
  3  4  2  0
  4  5  1  0
  5  6  2  0
  6  7  1  0
  7  8  1  0
  8  9  1  0
  8 15  1  0
  9 10  1  0
 10 11  1  0
 11 12  1  0
 11 13  1  0
 13 14  1  0
 13 15  1  0
 15 16  1  0
  1 17  1  0
  2 18  1  0
  3 19  1  0
  4 20  1  0
  5 21  1  0
  7 22  1  0
  7 23  1  0
  8 24  1  1
  9 25  1  0
 10 26  1  0
 10 27  1  0
 11 28  1  6
 12 29  1  0
 13 30  1  1
 14 31  1  0
 15 32  1  1
 16 33  1  0
M  END
