
     RDKit          3D

 19 21  0  0  0  0  0  0  0  0999 V2000
    0.8368    0.4931    0.0352 C   0  0  0  0  0  0  0  0  0  0  0  0
    1.3964   -0.8014    0.0298 C   0  0  0  0  0  0  0  0  0  0  0  0
    2.7998   -0.9248    0.0364 C   0  0  0  0  0  0  0  0  0  0  0  0
    3.0725    1.3327    0.0535 C   0  0  0  0  0  0  0  0  0  0  0  0
    1.7252    1.5830    0.0477 C   0  0  0  0  0  0  0  0  0  0  0  0
   -2.7546    1.3513    0.0183 C   0  0  0  0  0  0  0  0  0  0  0  0
   -1.4473    1.7080    0.0285 C   0  0  0  0  0  0  0  0  0  0  0  0
   -0.5806    0.5757    0.0274 C   0  0  0  0  0  0  0  0  0  0  0  0
   -1.2840   -0.6260    0.0161 C   0  0  0  0  0  0  0  0  0  0  0  0
   -0.7572   -1.8622    0.0117 N   0  0  0  0  0  0  0  0  0  0  0  0
   -2.9917   -0.3565    0.0070 S   0  0  0  0  0  0  0  0  0  0  0  0
    0.5425   -1.9376    0.0180 C   0  0  0  0  0  0  0  0  0  0  0  0
    3.6149    0.0976    0.0476 N   0  0  0  0  0  0  0  0  0  0  0  0
    1.3655    2.6030    0.0533 H   0  0  0  0  0  0  0  0  0  0  0  0
    3.2442   -1.9160    0.0323 H   0  0  0  0  0  0  0  0  0  0  0  0
    0.9823   -2.9300    0.0141 H   0  0  0  0  0  0  0  0  0  0  0  0
    3.7752    2.1569    0.0632 H   0  0  0  0  0  0  0  0  0  0  0  0
   -3.6107    2.0081    0.0161 H   0  0  0  0  0  0  0  0  0  0  0  0
   -1.1160    2.7363    0.0359 H   0  0  0  0  0  0  0  0  0  0  0  0
  1  2  1  0
  1  5  2  0
  1  8  1  0
  2  3  2  0
  2 12  1  0
  3 13  1  0
  4  5  1  0
  4 13  2  0
  6  7  2  0
  6 11  1  0
  7  8  1  0
  8  9  2  0
  9 10  1  0
  9 11  1  0
 10 12  2  0
  5 14  1  0
  3 15  1  0
 12 16  1  0
  4 17  1  0
  6 18  1  0
  7 19  1  0
M  END
